header:name
header:software
header:notes
  4  3  0  0  1  0            999 V2000
  -21.3867  -43.2934    0.2080 C   0  0  0  0  0  0
  -19.9741  -43.0684    0.7479 C   0  0  0  0  0  0
  -19.2949  -44.3041    0.7473 O   0  0  0  0  0  0
  -18.8060  -44.3951   -0.0750 H   0  0  0  0  0  0
  1  2  1  0  0  0
  2  3  1  0  0  0
  3  4  1  0  0  0
M  END
> <PLP_SCORE>
-29.928873

$$$$
header:name
header:software
header:notes
  4  3  0  0  1  0            999 V2000
  -20.0921  -42.0803    1.1328 C   0  0  0  0  0  0
  -20.4120  -43.4812    0.6106 C   0  0  0  0  0  0
  -19.2552  -44.2778    0.7351 O   0  0  0  0  0  0
  -18.5112  -43.8183    0.3365 H   0  0  0  0  0  0
  1  2  1  0  0  0
  2  3  1  0  0  0
  3  4  1  0  0  0
M  END
> <PLP_SCORE>
-28.553045

$$$$
header:name
header:software
header:notes
  4  3  0  0  1  0            999 V2000
  -26.2803  -40.0792    7.0885 C   0  0  0  0  0  0
  -25.2857  -40.6068    8.1229 C   0  0  0  0  0  0
  -25.2591  -39.7119    9.2123 O   0  0  0  0  0  0
  -25.9508  -39.9520    9.8348 H   0  0  0  0  0  0
  1  2  1  0  0  0
  2  3  1  0  0  0
  3  4  1  0  0  0
M  END
> <PLP_SCORE>
-24.662035

$$$$
header:name
header:software
header:notes
  4  3  0  0  1  0            999 V2000
  -24.8570  -41.7456    7.9157 C   0  0  0  0  0  0
  -25.2541  -40.2693    7.8975 C   0  0  0  0  0  0
  -25.2757  -39.7974    9.2261 O   0  0  0  0  0  0
  -25.3792  -40.5426    9.8240 H   0  0  0  0  0  0
  1  2  1  0  0  0
  2  3  1  0  0  0
  3  4  1  0  0  0
M  END
> <PLP_SCORE>
-25.984425

$$$$
header:name
header:software
header:notes
  4  3  0  0  1  0            999 V2000
  -21.6850  -43.9547    0.2447 C   0  0  0  0  0  0
  -20.3882  -43.2808    0.6939 C   0  0  0  0  0  0
  -19.3734  -44.2584    0.7469 O   0  0  0  0  0  0
  -19.7350  -45.0691    1.1151 H   0  0  0  0  0  0
  1  2  1  0  0  0
  2  3  1  0  0  0
  3  4  1  0  0  0
M  END
> <PLP_SCORE>
-29.653574

$$$$
