header:name
header:software
header:notes
  4  3  0  0  1  0            999 V2000
  -21.3867  -43.2934    0.2080 C   0  0  0  0  0  0
  -19.9741  -43.0684    0.7479 C   0  0  0  0  0  0
  -19.2949  -44.3041    0.7473 O   0  0  0  0  0  0
  -18.8060  -44.3951   -0.0750 H   0  0  0  0  0  0
  1  2  1  0  0  0
  2  3  1  0  0  0
  3  4  1  0  0  0
M  END
> <PLP_SCORE>
-29.928873

$$$$
header:name
header:software
header:notes
  4  3  0  0  1  0            999 V2000
  -20.0921  -42.0803    1.1328 C   0  0  0  0  0  0
  -20.4120  -43.4812    0.6106 C   0  0  0  0  0  0
  -19.2552  -44.2778    0.7351 O   0  0  0  0  0  0
  -18.5112  -43.8183    0.3365 H   0  0  0  0  0  0
  1  2  1  0  0  0
  2  3  1  0  0  0
  3  4  1  0  0  0
M  END
> <PLP_SCORE>
-28.553045

$$$$
header:name
header:software
header:notes
  4  3  0  0  1  0            999 V2000
  -26.2803  -40.0792    7.0885 C   0  0  0  0  0  0
  -25.2857  -40.6068    8.1229 C   0  0  0  0  0  0
  -25.2591  -39.7119    9.2123 O   0  0  0  0  0  0
  -25.9508  -39.9520    9.8348 H   0  0  0  0  0  0
  1  2  1  0  0  0
  2  3  1  0  0  0
  3  4  1  0  0  0
M  END
> <PLP_SCORE>
-24.662035

$$$$
header:name
header:software
header:notes
  4  3  0  0  1  0            999 V2000
  -24.8570  -41.7456    7.9157 C   0  0  0  0  0  0
  -25.2541  -40.2693    7.8975 C   0  0  0  0  0  0
  -25.2757  -39.7974    9.2261 O   0  0  0  0  0  0
  -25.3792  -40.5426    9.8240 H   0  0  0  0  0  0
  1  2  1  0  0  0
  2  3  1  0  0  0
  3  4  1  0  0  0
M  END
> <PLP_SCORE>
-25.984425

$$$$
header:name
header:software
header:notes
  4  3  0  0  1  0            999 V2000
  -21.6850  -43.9547    0.2447 C   0  0  0  0  0  0
  -20.3882  -43.2808    0.6939 C   0  0  0  0  0  0
  -19.3734  -44.2584    0.7469 O   0  0  0  0  0  0
  -19.7350  -45.0691    1.1151 H   0  0  0  0  0  0
  1  2  1  0  0  0
  2  3  1  0  0  0
  3  4  1  0  0  0
M  END
> <PLP_SCORE>
-29.653574

$$$$
header:name
header:software
header:notes
  4  3  0  0  1  0            999 V2000
  -21.6047  -43.8407    0.1686 C   0  0  0  0  0  0
  -20.2790  -43.2826    0.6867 C   0  0  0  0  0  0
  -19.2918  -44.2801    0.5495 O   0  0  0  0  0  0
  -18.4227  -43.8735    0.6042 H   0  0  0  0  0  0
  1  2  1  0  0  0
  2  3  1  0  0  0
  3  4  1  0  0  0
M  END
> <PLP_SCORE>
-27.568794

$$$$
header:name
header:software
header:notes
  4  3  0  0  1  0            999 V2000
  -25.6029  -39.5453    6.8854 C   0  0  0  0  0  0
  -25.2574  -40.3706    8.1251 C   0  0  0  0  0  0
  -25.2617  -39.5145    9.2456 O   0  0  0  0  0  0
  -26.1482  -39.4834    9.6155 H   0  0  0  0  0  0
  1  2  1  0  0  0
  2  3  1  0  0  0
  3  4  1  0  0  0
M  END
> <PLP_SCORE>
-25.393515

$$$$
header:name
header:software
header:notes
  4  3  0  0  1  0            999 V2000
  -19.7569  -42.0005    1.2179 C   0  0  0  0  0  0
  -20.3113  -43.3344    0.7171 C   0  0  0  0  0  0
  -19.2728  -44.2878    0.7470 O   0  0  0  0  0  0
  -19.6129  -45.1344    0.4452 H   0  0  0  0  0  0
  1  2  1  0  0  0
  2  3  1  0  0  0
  3  4  1  0  0  0
M  END
> <PLP_SCORE>
-30.235907

$$$$
header:name
header:software
header:notes
  4  3  0  0  1  0            999 V2000
  -21.6125  -43.9615    0.4833 C   0  0  0  0  0  0
  -20.2637  -43.2681    0.6768 C   0  0  0  0  0  0
  -19.2565  -44.2543    0.7098 O   0  0  0  0  0  0
  -18.9666  -44.3791    1.6175 H   0  0  0  0  0  0
  1  2  1  0  0  0
  2  3  1  0  0  0
  3  4  1  0  0  0
M  END
> <PLP_SCORE>
-27.474007

$$$$
header:name
header:software
header:notes
  4  3  0  0  1  0            999 V2000
  -19.6879  -41.9992    1.3359 C   0  0  0  0  0  0
  -20.2700  -43.2787    0.7346 C   0  0  0  0  0  0
  -19.2585  -44.2610    0.7131 O   0  0  0  0  0  0
  -18.7781  -44.2011   -0.1171 H   0  0  0  0  0  0
  1  2  1  0  0  0
  2  3  1  0  0  0
  3  4  1  0  0  0
M  END
> <PLP_SCORE>
-28.841337

$$$$
header:name
header:software
header:notes
  4  3  0  0  1  0            999 V2000
  -19.7738  -41.9875    1.2422 C   0  0  0  0  0  0
  -20.3073  -43.3163    0.7063 C   0  0  0  0  0  0
  -19.2524  -44.2520    0.7054 O   0  0  0  0  0  0
  -19.0406  -44.4896    1.6122 H   0  0  0  0  0  0
  1  2  1  0  0  0
  2  3  1  0  0  0
  3  4  1  0  0  0
M  END
> <PLP_SCORE>
-30.101215

$$$$
header:name
header:software
header:notes
  4  3  0  0  1  0            999 V2000
  -21.5917  -43.8967    0.2336 C   0  0  0  0  0  0
  -20.2408  -43.2438    0.5271 C   0  0  0  0  0  0
  -19.2891  -44.2633    0.7350 O   0  0  0  0  0  0
  -18.6222  -43.9512    1.3526 H   0  0  0  0  0  0
  1  2  1  0  0  0
  2  3  1  0  0  0
  3  4  1  0  0  0
M  END
> <PLP_SCORE>
-28.433767

$$$$
header:name
header:software
header:notes
  4  3  0  0  1  0            999 V2000
  -20.6227  -42.2832    1.0071 C   0  0  0  0  0  0
  -20.6297  -43.7669    0.6382 C   0  0  0  0  0  0
  -19.3114  -44.2571    0.7389 O   0  0  0  0  0  0
  -19.3372  -45.1775    1.0141 H   0  0  0  0  0  0
  1  2  1  0  0  0
  2  3  1  0  0  0
  3  4  1  0  0  0
M  END
> <PLP_SCORE>
-28.418659

$$$$
header:name
header:software
header:notes
  4  3  0  0  1  0            999 V2000
  -21.2697  -43.0767    0.2092 C   0  0  0  0  0  0
  -19.8739  -43.0066    0.8292 C   0  0  0  0  0  0
  -19.2619  -44.2696    0.6927 O   0  0  0  0  0  0
  -18.8179  -44.3148   -0.1584 H   0  0  0  0  0  0
  1  2  1  0  0  0
  2  3  1  0  0  0
  3  4  1  0  0  0
M  END
> <PLP_SCORE>
-26.942675

$$$$
header:name
header:software
header:notes
  4  3  0  0  1  0            999 V2000
  -20.0970  -42.0867    1.2654 C   0  0  0  0  0  0
  -20.4510  -43.4780    0.7397 C   0  0  0  0  0  0
  -19.2834  -44.2684    0.7499 O   0  0  0  0  0  0
  -19.3469  -44.9342    0.0597 H   0  0  0  0  0  0
  1  2  1  0  0  0
  2  3  1  0  0  0
  3  4  1  0  0  0
M  END
> <PLP_SCORE>
-29.465115

$$$$
header:name
header:software
header:notes
  4  3  0  0  1  0            999 V2000
  -19.8573  -42.0947    1.5103 C   0  0  0  0  0  0
  -20.3251  -43.3316    0.7431 C   0  0  0  0  0  0
  -19.2657  -44.2617    0.7091 O   0  0  0  0  0  0
  -19.4004  -44.8667   -0.0254 H   0  0  0  0  0  0
  1  2  1  0  0  0
  2  3  1  0  0  0
  3  4  1  0  0  0
M  END
> <PLP_SCORE>
-30.982250

$$$$
header:name
header:software
header:notes
  4  3  0  0  1  0            999 V2000
  -24.9663  -35.5633    7.3432 C   0  0  0  0  0  0
  -26.3210  -36.2708    7.3820 C   0  0  0  0  0  0
  -26.7704  -36.2997    8.7182 O   0  0  0  0  0  0
  -27.2275  -37.1296    8.8795 H   0  0  0  0  0  0
  1  2  1  0  0  0
  2  3  1  0  0  0
  3  4  1  0  0  0
M  END
> <PLP_SCORE>
-25.421547

$$$$
header:name
header:software
header:notes
  4  3  0  0  1  0            999 V2000
  -21.6376  -43.9855    0.1885 C   0  0  0  0  0  0
  -20.3746  -43.3303    0.7481 C   0  0  0  0  0  0
  -19.3339  -44.2816    0.7303 O   0  0  0  0  0  0
  -19.6255  -45.0768    1.1845 H   0  0  0  0  0  0
  1  2  1  0  0  0
  2  3  1  0  0  0
  3  4  1  0  0  0
M  END
> <PLP_SCORE>
-29.853058

$$$$
header:name
header:software
header:notes
  4  3  0  0  1  0            999 V2000
  -25.4401  -34.9821    7.1726 C   0  0  0  0  0  0
  -26.2591  -36.2568    7.3770 C   0  0  0  0  0  0
  -26.7592  -36.2584    8.6954 O   0  0  0  0  0  0
  -27.4365  -35.5815    8.7768 H   0  0  0  0  0  0
  1  2  1  0  0  0
  2  3  1  0  0  0
  3  4  1  0  0  0
M  END
> <PLP_SCORE>
-26.604530

$$$$
header:name
header:software
header:notes
  4  3  0  0  1  0            999 V2000
  -24.7501  -41.8352    8.1313 C   0  0  0  0  0  0
  -25.2900  -40.4133    7.9752 C   0  0  0  0  0  0
  -25.3056  -39.8008    9.2453 O   0  0  0  0  0  0
  -25.3120  -38.8462    9.1351 H   0  0  0  0  0  0
  1  2  1  0  0  0
  2  3  1  0  0  0
  3  4  1  0  0  0
M  END
> <PLP_SCORE>
-25.122288

$$$$
header:name
header:software
header:notes
  4  3  0  0  1  0            999 V2000
  -24.9692  -41.7732    7.9948 C   0  0  0  0  0  0
  -25.3483  -40.2932    7.9359 C   0  0  0  0  0  0
  -25.2567  -39.7578    9.2371 O   0  0  0  0  0  0
  -26.1301  -39.7518    9.6381 H   0  0  0  0  0  0
  1  2  1  0  0  0
  2  3  1  0  0  0
  3  4  1  0  0  0
M  END
> <PLP_SCORE>
-25.492231

$$$$
header:name
header:software
header:notes
  4  3  0  0  1  0            999 V2000
  -25.2695  -37.7097    7.5596 C   0  0  0  0  0  0
  -26.3978  -36.6843    7.4453 C   0  0  0  0  0  0
  -26.7553  -36.2687    8.7444 O   0  0  0  0  0  0
  -26.0205  -36.4329    9.3417 H   0  0  0  0  0  0
  1  2  1  0  0  0
  2  3  1  0  0  0
  3  4  1  0  0  0
M  END
> <PLP_SCORE>
-23.701859

$$$$
header:name
header:software
header:notes
  4  3  0  0  1  0            999 V2000
  -25.7859  -41.1941    7.6230 C   0  0  0  0  0  0
  -25.2995  -39.7500    7.7478 C   0  0  0  0  0  0
  -25.2768  -39.4042    9.1147 O   0  0  0  0  0  0
  -25.9979  -38.7960    9.2983 H   0  0  0  0  0  0
  1  2  1  0  0  0
  2  3  1  0  0  0
  3  4  1  0  0  0
M  END
> <PLP_SCORE>
-24.351236

$$$$
header:name
header:software
header:notes
  4  3  0  0  1  0            999 V2000
  -19.7601  -42.1174    1.6171 C   0  0  0  0  0  0
  -20.3506  -43.2954    0.8418 C   0  0  0  0  0  0
  -19.3365  -44.2564    0.6511 O   0  0  0  0  0  0
  -19.5587  -45.0515    1.1430 H   0  0  0  0  0  0
  1  2  1  0  0  0
  2  3  1  0  0  0
  3  4  1  0  0  0
M  END
> <PLP_SCORE>
-25.677286

$$$$
header:name
header:software
header:notes
  4  3  0  0  1  0            999 V2000
  -21.6016  -44.2326    0.2260 C   0  0  0  0  0  0
  -20.3848  -43.3932    0.6162 C   0  0  0  0  0  0
  -19.2724  -44.2512    0.7386 O   0  0  0  0  0  0
  -19.5783  -45.1346    0.9612 H   0  0  0  0  0  0
  1  2  1  0  0  0
  2  3  1  0  0  0
  3  4  1  0  0  0
M  END
> <PLP_SCORE>
-30.324038

$$$$
header:name
header:software
header:notes
  4  3  0  0  1  0            999 V2000
  -21.5720  -44.0482    0.0661 C   0  0  0  0  0  0
  -20.3328  -43.3727    0.6538 C   0  0  0  0  0  0
  -19.2708  -44.3002    0.6396 O   0  0  0  0  0  0
  -19.3167  -44.8445    1.4303 H   0  0  0  0  0  0
  1  2  1  0  0  0
  2  3  1  0  0  0
  3  4  1  0  0  0
M  END
> <PLP_SCORE>
-26.142466

$$$$
header:name
header:software
header:notes
  4  3  0  0  1  0            999 V2000
  -25.1913  -35.0999    7.3397 C   0  0  0  0  0  0
  -26.2638  -36.1876    7.4030 C   0  0  0  0  0  0
  -26.7528  -36.2547    8.7239 O   0  0  0  0  0  0
  -26.2814  -36.9434    9.2003 H   0  0  0  0  0  0
  1  2  1  0  0  0
  2  3  1  0  0  0
  3  4  1  0  0  0
M  END
> <PLP_SCORE>
-25.360113

$$$$
header:name
header:software
header:notes
  4  3  0  0  1  0            999 V2000
  -19.8004  -42.0140    0.7257 C   0  0  0  0  0  0
  -20.3513  -43.4400    0.7489 C   0  0  0  0  0  0
  -19.2640  -44.3378    0.7378 O   0  0  0  0  0  0
  -18.8165  -44.2809   -0.1108 H   0  0  0  0  0  0
  1  2  1  0  0  0
  2  3  1  0  0  0
  3  4  1  0  0  0
M  END
> <PLP_SCORE>
-26.366110

$$$$
header:name
header:software
header:notes
  4  3  0  0  1  0            999 V2000
  -25.5378  -41.6048    7.7403 C   0  0  0  0  0  0
  -25.2997  -40.0992    7.8589 C   0  0  0  0  0  0
  -25.2627  -39.7605    9.2272 O   0  0  0  0  0  0
  -24.4158  -40.0264    9.5953 H   0  0  0  0  0  0
  1  2  1  0  0  0
  2  3  1  0  0  0
  3  4  1  0  0  0
M  END
> <PLP_SCORE>
-24.791771

$$$$
header:name
header:software
header:notes
  4  3  0  0  1  0            999 V2000
  -20.2354  -42.1481    1.2559 C   0  0  0  0  0  0
  -20.4493  -43.5136    0.6022 C   0  0  0  0  0  0
  -19.2654  -44.2662    0.7451 O   0  0  0  0  0  0
  -18.6764  -44.0701    0.0115 H   0  0  0  0  0  0
  1  2  1  0  0  0
  2  3  1  0  0  0
  3  4  1  0  0  0
M  END
> <PLP_SCORE>
-28.442772

$$$$
header:name
header:software
header:notes
  4  3  0  0  1  0            999 V2000
  -19.8025  -41.9847    1.1760 C   0  0  0  0  0  0
  -20.3338  -43.3340    0.6916 C   0  0  0  0  0  0
  -19.2768  -44.2667    0.7243 O   0  0  0  0  0  0
  -18.5326  -43.9178    0.2263 H   0  0  0  0  0  0
  1  2  1  0  0  0
  2  3  1  0  0  0
  3  4  1  0  0  0
M  END
> <PLP_SCORE>
-29.283485

$$$$
header:name
header:software
header:notes
  4  3  0  0  1  0            999 V2000
  -19.9717  -42.0628    1.2940 C   0  0  0  0  0  0
  -20.3954  -43.4262    0.7471 C   0  0  0  0  0  0
  -19.2536  -44.2501    0.6713 O   0  0  0  0  0  0
  -19.5199  -45.1347    0.4064 H   0  0  0  0  0  0
  1  2  1  0  0  0
  2  3  1  0  0  0
  3  4  1  0  0  0
M  END
> <PLP_SCORE>
-29.847977

$$$$
header:name
header:software
header:notes
  4  3  0  0  1  0            999 V2000
  -21.4499  -43.3522    0.1063 C   0  0  0  0  0  0
  -20.0441  -43.0556    0.6292 C   0  0  0  0  0  0
  -19.3292  -44.2691    0.6980 O   0  0  0  0  0  0
  -18.9450  -44.4581   -0.1623 H   0  0  0  0  0  0
  1  2  1  0  0  0
  2  3  1  0  0  0
  3  4  1  0  0  0
M  END
> <PLP_SCORE>
-27.410515

$$$$
header:name
header:software
header:notes
  4  3  0  0  1  0            999 V2000
  -19.8603  -42.0969    1.3039 C   0  0  0  0  0  0
  -20.3479  -43.4005    0.6710 C   0  0  0  0  0  0
  -19.2956  -44.3381    0.7155 O   0  0  0  0  0  0
  -19.6173  -45.1551    1.1060 H   0  0  0  0  0  0
  1  2  1  0  0  0
  2  3  1  0  0  0
  3  4  1  0  0  0
M  END
> <PLP_SCORE>
-26.694120

$$$$
header:name
header:software
header:notes
  4  3  0  0  1  0            999 V2000
  -21.6338  -44.2196    0.2128 C   0  0  0  0  0  0
  -20.4345  -43.4196    0.7219 C   0  0  0  0  0  0
  -19.2969  -44.2520    0.6879 O   0  0  0  0  0  0
  -19.5569  -45.1300    0.3960 H   0  0  0  0  0  0
  1  2  1  0  0  0
  2  3  1  0  0  0
  3  4  1  0  0  0
M  END
> <PLP_SCORE>
-29.265144

$$$$
header:name
header:software
header:notes
  4  3  0  0  1  0            999 V2000
  -19.7694  -41.9568    1.1067 C   0  0  0  0  0  0
  -20.3160  -43.3260    0.7018 C   0  0  0  0  0  0
  -19.2587  -44.2580    0.7439 O   0  0  0  0  0  0
  -18.5641  -43.9215    1.3164 H   0  0  0  0  0  0
  1  2  1  0  0  0
  2  3  1  0  0  0
  3  4  1  0  0  0
M  END
> <PLP_SCORE>
-29.979937

$$$$
header:name
header:software
header:notes
  4  3  0  0  1  0            999 V2000
  -24.7976  -41.7450    7.9359 C   0  0  0  0  0  0
  -25.2798  -40.2943    7.9221 C   0  0  0  0  0  0
  -25.2541  -39.8037    9.2438 O   0  0  0  0  0  0
  -25.3101  -40.5426    9.8558 H   0  0  0  0  0  0
  1  2  1  0  0  0
  2  3  1  0  0  0
  3  4  1  0  0  0
M  END
> <PLP_SCORE>
-25.993286

$$$$
header:name
header:software
header:notes
  4  3  0  0  1  0            999 V2000
  -21.4974  -43.5739    0.2289 C   0  0  0  0  0  0
  -20.0821  -43.1155    0.5812 C   0  0  0  0  0  0
  -19.2633  -44.2564    0.7089 O   0  0  0  0  0  0
  -19.2867  -44.7552   -0.1122 H   0  0  0  0  0  0
  1  2  1  0  0  0
  2  3  1  0  0  0
  3  4  1  0  0  0
M  END
> <PLP_SCORE>
-29.545580

$$$$
header:name
header:software
header:notes
  4  3  0  0  1  0            999 V2000
  -25.3088  -34.7801    7.6410 C   0  0  0  0  0  0
  -26.0968  -36.0861    7.5361 C   0  0  0  0  0  0
  -26.7924  -36.2851    8.7464 O   0  0  0  0  0  0
  -26.4468  -35.6837    9.4116 H   0  0  0  0  0  0
  1  2  1  0  0  0
  2  3  1  0  0  0
  3  4  1  0  0  0
M  END
> <PLP_SCORE>
-25.147635

$$$$
header:name
header:software
header:notes
  4  3  0  0  1  0            999 V2000
  -25.8464  -37.8127    7.1806 C   0  0  0  0  0  0
  -26.2902  -36.3700    7.4238 C   0  0  0  0  0  0
  -26.7640  -36.2669    8.7478 O   0  0  0  0  0  0
  -26.7663  -37.1393    9.1510 H   0  0  0  0  0  0
  1  2  1  0  0  0
  2  3  1  0  0  0
  3  4  1  0  0  0
M  END
> <PLP_SCORE>
-26.168207

$$$$
header:name
header:software
header:notes
  4  3  0  0  1  0            999 V2000
  -25.2363  -35.2020    7.2651 C   0  0  0  0  0  0
  -26.2657  -36.3201    7.4313 C   0  0  0  0  0  0
  -26.7788  -36.2617    8.7434 O   0  0  0  0  0  0
  -26.9593  -37.1539    9.0517 H   0  0  0  0  0  0
  1  2  1  0  0  0
  2  3  1  0  0  0
  3  4  1  0  0  0
M  END
> <PLP_SCORE>
-26.394079

$$$$
header:name
header:software
header:notes
  4  3  0  0  1  0            999 V2000
  -19.7727  -42.0950    1.5392 C   0  0  0  0  0  0
  -20.2807  -43.2906    0.7331 C   0  0  0  0  0  0
  -19.2692  -44.2727    0.7074 O   0  0  0  0  0  0
  -18.5833  -44.0359    1.3375 H   0  0  0  0  0  0
  1  2  1  0  0  0
  2  3  1  0  0  0
  3  4  1  0  0  0
M  END
> <PLP_SCORE>
-30.182295

$$$$
header:name
header:software
header:notes
  4  3  0  0  1  0            999 V2000
  -19.9481  -42.1953    1.7187 C   0  0  0  0  0  0
  -20.3056  -43.3062    0.7309 C   0  0  0  0  0  0
  -19.2642  -44.2569    0.7336 O   0  0  0  0  0  0
  -19.6395  -45.1363    0.6368 H   0  0  0  0  0  0
  1  2  1  0  0  0
  2  3  1  0  0  0
  3  4  1  0  0  0
M  END
> <PLP_SCORE>
-31.276625

$$$$
header:name
header:software
header:notes
  4  3  0  0  1  0            999 V2000
  -21.5882  -43.9289    0.2291 C   0  0  0  0  0  0
  -20.2305  -43.2551    0.4295 C   0  0  0  0  0  0
  -19.2718  -44.2547    0.6939 O   0  0  0  0  0  0
  -18.6802  -43.9492    1.3870 H   0  0  0  0  0  0
  1  2  1  0  0  0
  2  3  1  0  0  0
  3  4  1  0  0  0
M  END
> <PLP_SCORE>
-28.714544

$$$$
header:name
header:software
header:notes
  4  3  0  0  1  0            999 V2000
  -20.8148  -42.4405    0.6489 C   0  0  0  0  0  0
  -20.6494  -43.9603    0.6357 C   0  0  0  0  0  0
  -19.2713  -44.2586    0.6484 O   0  0  0  0  0  0
  -18.8114  -43.6504    0.0634 H   0  0  0  0  0  0
  1  2  1  0  0  0
  2  3  1  0  0  0
  3  4  1  0  0  0
M  END
> <PLP_SCORE>
-25.932156

$$$$
header:name
header:software
header:notes
  4  3  0  0  1  0            999 V2000
  -25.3452  -35.0407    7.3016 C   0  0  0  0  0  0
  -26.2718  -36.2507    7.4232 C   0  0  0  0  0  0
  -26.7569  -36.3092    8.7459 O   0  0  0  0  0  0
  -27.4429  -35.6459    8.8600 H   0  0  0  0  0  0
  1  2  1  0  0  0
  2  3  1  0  0  0
  3  4  1  0  0  0
M  END
> <PLP_SCORE>
-27.043602

$$$$
header:name
header:software
header:notes
  4  3  0  0  1  0            999 V2000
  -24.9777  -35.5450    7.3190 C   0  0  0  0  0  0
  -26.3128  -36.2862    7.3932 C   0  0  0  0  0  0
  -26.7585  -36.2683    8.7308 O   0  0  0  0  0  0
  -27.1037  -37.1354    8.9600 H   0  0  0  0  0  0
  1  2  1  0  0  0
  2  3  1  0  0  0
  3  4  1  0  0  0
M  END
> <PLP_SCORE>
-26.242901

$$$$
header:name
header:software
header:notes
  4  3  0  0  1  0            999 V2000
  -25.0008  -35.4774    7.3374 C   0  0  0  0  0  0
  -26.2537  -36.3499    7.4189 C   0  0  0  0  0  0
  -26.7806  -36.2521    8.7232 O   0  0  0  0  0  0
  -26.2842  -36.8307    9.3083 H   0  0  0  0  0  0
  1  2  1  0  0  0
  2  3  1  0  0  0
  3  4  1  0  0  0
M  END
> <PLP_SCORE>
-26.159664

$$$$
header:name
header:software
header:notes
  4  3  0  0  1  0            999 V2000
  -24.8047  -41.8813    8.1829 C   0  0  0  0  0  0
  -25.2514  -40.4388    7.9438 C   0  0  0  0  0  0
  -25.2560  -39.7630    9.1814 O   0  0  0  0  0  0
  -24.4864  -39.1896    9.2307 H   0  0  0  0  0  0
  1  2  1  0  0  0
  2  3  1  0  0  0
  3  4  1  0  0  0
M  END
> <PLP_SCORE>
-25.888824

$$$$
header:name
header:software
header:notes
  4  3  0  0  1  0            999 V2000
  -25.3551  -35.0582    7.4123 C   0  0  0  0  0  0
  -26.3117  -36.2508    7.4272 C   0  0  0  0  0  0
  -26.7815  -36.4286    8.7447 O   0  0  0  0  0  0
  -27.7410  -36.4813    8.7331 H   0  0  0  0  0  0
  1  2  1  0  0  0
  2  3  1  0  0  0
  3  4  1  0  0  0
M  END
> <PLP_SCORE>
-24.788773

$$$$
header:name
header:software
header:notes
  4  3  0  0  1  0            999 V2000
  -21.3801  -43.3036    0.0934 C   0  0  0  0  0  0
  -20.0057  -43.0436    0.7108 C   0  0  0  0  0  0
  -19.2771  -44.2508    0.7002 O   0  0  0  0  0  0
  -19.7168  -44.8897    1.2678 H   0  0  0  0  0  0
  1  2  1  0  0  0
  2  3  1  0  0  0
  3  4  1  0  0  0
M  END
> <PLP_SCORE>
-28.993845

$$$$
header:name
header:software
header:notes
  4  3  0  0  1  0            999 V2000
  -19.9198  -42.0939    1.4832 C   0  0  0  0  0  0
  -20.3274  -43.3326    0.6850 C   0  0  0  0  0  0
  -19.2585  -44.2518    0.7125 O   0  0  0  0  0  0
  -18.7870  -44.2126   -0.1241 H   0  0  0  0  0  0
  1  2  1  0  0  0
  2  3  1  0  0  0
  3  4  1  0  0  0
M  END
> <PLP_SCORE>
-29.835112

$$$$
header:name
header:software
header:notes
  4  3  0  0  1  0            999 V2000
  -25.7682  -41.1828    7.3976 C   0  0  0  0  0  0
  -25.3079  -39.7932    7.8388 C   0  0  0  0  0  0
  -25.2583  -39.7669    9.2478 O   0  0  0  0  0  0
  -24.4588  -40.2105    9.5437 H   0  0  0  0  0  0
  1  2  1  0  0  0
  2  3  1  0  0  0
  3  4  1  0  0  0
M  END
> <PLP_SCORE>
-24.043371

$$$$
header:name
header:software
header:notes
  4  3  0  0  1  0            999 V2000
  -24.8322  -41.7244    7.9365 C   0  0  0  0  0  0
  -25.2840  -40.2640    7.9126 C   0  0  0  0  0  0
  -25.2555  -39.7672    9.2319 O   0  0  0  0  0  0
  -24.6804  -38.9981    9.2671 H   0  0  0  0  0  0
  1  2  1  0  0  0
  2  3  1  0  0  0
  3  4  1  0  0  0
M  END
> <PLP_SCORE>
-26.726744

$$$$
header:name
header:software
header:notes
  4  3  0  0  1  0            999 V2000
  -21.4118  -43.3638    0.1841 C   0  0  0  0  0  0
  -20.0065  -43.0807    0.7158 C   0  0  0  0  0  0
  -19.2728  -44.2848    0.6983 O   0  0  0  0  0  0
  -18.3372  -44.0855    0.7910 H   0  0  0  0  0  0
  1  2  1  0  0  0
  2  3  1  0  0  0
  3  4  1  0  0  0
M  END
> <PLP_SCORE>
-29.392700

$$$$
header:name
header:software
header:notes
  4  3  0  0  1  0            999 V2000
  -20.6291  -42.3051    0.7691 C   0  0  0  0  0  0
  -20.5731  -43.8100    0.5052 C   0  0  0  0  0  0
  -19.2514  -44.2512    0.7215 O   0  0  0  0  0  0
  -19.2069  -45.1995    0.5721 H   0  0  0  0  0  0
  1  2  1  0  0  0
  2  3  1  0  0  0
  3  4  1  0  0  0
M  END
> <PLP_SCORE>
-27.814835

$$$$
header:name
header:software
header:notes
  4  3  0  0  1  0            999 V2000
  -19.8688  -41.9947    1.1825 C   0  0  0  0  0  0
  -20.3807  -43.3615    0.7270 C   0  0  0  0  0  0
  -19.2879  -44.2511    0.6734 O   0  0  0  0  0  0
  -18.6098  -43.9552    1.2867 H   0  0  0  0  0  0
  1  2  1  0  0  0
  2  3  1  0  0  0
  3  4  1  0  0  0
M  END
> <PLP_SCORE>
-29.509451

$$$$
header:name
header:software
header:notes
  4  3  0  0  1  0            999 V2000
  -25.0268  -35.4383    7.3085 C   0  0  0  0  0  0
  -26.3107  -36.2652    7.3826 C   0  0  0  0  0  0
  -26.7598  -36.2719    8.7192 O   0  0  0  0  0  0
  -26.0702  -35.9151    9.2856 H   0  0  0  0  0  0
  1  2  1  0  0  0
  2  3  1  0  0  0
  3  4  1  0  0  0
M  END
> <PLP_SCORE>
-26.254196

$$$$
header:name
header:software
header:notes
  4  3  0  0  1  0            999 V2000
  -26.2659  -40.2133    7.1335 C   0  0  0  0  0  0
  -25.2709  -40.6372    8.2142 C   0  0  0  0  0  0
  -25.2985  -39.6769    9.2464 O   0  0  0  0  0  0
  -24.9637  -40.0734   10.0553 H   0  0  0  0  0  0
  1  2  1  0  0  0
  2  3  1  0  0  0
  3  4  1  0  0  0
M  END
> <PLP_SCORE>
-25.307411

$$$$
header:name
header:software
header:notes
  4  3  0  0  1  0            999 V2000
  -21.6445  -43.9351    0.2446 C   0  0  0  0  0  0
  -20.3268  -43.2870    0.6701 C   0  0  0  0  0  0
  -19.3283  -44.2824    0.6945 O   0  0  0  0  0  0
  -18.5556  -43.9431    1.1543 H   0  0  0  0  0  0
  1  2  1  0  0  0
  2  3  1  0  0  0
  3  4  1  0  0  0
M  END
> <PLP_SCORE>
-29.508904

$$$$
header:name
header:software
header:notes
  4  3  0  0  1  0            999 V2000
  -21.6127  -43.8545    0.1651 C   0  0  0  0  0  0
  -20.3044  -43.2628    0.6902 C   0  0  0  0  0  0
  -19.3420  -44.2917    0.7487 O   0  0  0  0  0  0
  -19.2627  -44.6993   -0.1179 H   0  0  0  0  0  0
  1  2  1  0  0  0
  2  3  1  0  0  0
  3  4  1  0  0  0
M  END
> <PLP_SCORE>
-29.651705

$$$$
header:name
header:software
header:notes
  4  3  0  0  1  0            999 V2000
  -24.9961  -35.4994    7.3280 C   0  0  0  0  0  0
  -26.2581  -36.3565    7.4293 C   0  0  0  0  0  0
  -26.7553  -36.2634    8.7455 O   0  0  0  0  0  0
  -26.4333  -37.0099    9.2580 H   0  0  0  0  0  0
  1  2  1  0  0  0
  2  3  1  0  0  0
  3  4  1  0  0  0
M  END
> <PLP_SCORE>
-25.959755

$$$$
header:name
header:software
header:notes
  4  3  0  0  1  0            999 V2000
  -19.8315  -42.1139    1.4913 C   0  0  0  0  0  0
  -20.2983  -43.3466    0.7167 C   0  0  0  0  0  0
  -19.2588  -44.2992    0.7269 O   0  0  0  0  0  0
  -19.5869  -45.1282    0.3683 H   0  0  0  0  0  0
  1  2  1  0  0  0
  2  3  1  0  0  0
  3  4  1  0  0  0
M  END
> <PLP_SCORE>
-29.506937

$$$$
header:name
header:software
header:notes
  4  3  0  0  1  0            999 V2000
  -21.6323  -43.9526    0.1197 C   0  0  0  0  0  0
  -20.3761  -43.3080    0.7061 C   0  0  0  0  0  0
  -19.3358  -44.2597    0.6853 O   0  0  0  0  0  0
  -18.7017  -44.0193    0.0043 H   0  0  0  0  0  0
  1  2  1  0  0  0
  2  3  1  0  0  0
  3  4  1  0  0  0
M  END
> <PLP_SCORE>
-28.748499

$$$$
header:name
header:software
header:notes
  4  3  0  0  1  0            999 V2000
  -24.8530  -35.7798    7.3678 C   0  0  0  0  0  0
  -26.2641  -36.3676    7.3992 C   0  0  0  0  0  0
  -26.7554  -36.2764    8.7177 O   0  0  0  0  0  0
  -27.6488  -36.6294    8.7467 H   0  0  0  0  0  0
  1  2  1  0  0  0
  2  3  1  0  0  0
  3  4  1  0  0  0
M  END
> <PLP_SCORE>
-26.051640

$$$$
header:name
header:software
header:notes
  4  3  0  0  1  0            999 V2000
  -25.8787  -39.4323    7.2197 C   0  0  0  0  0  0
  -25.2669  -40.3988    8.2341 C   0  0  0  0  0  0
  -25.2718  -39.7778    9.5001 O   0  0  0  0  0  0
  -25.8872  -39.0397    9.4871 H   0  0  0  0  0  0
  1  2  1  0  0  0
  2  3  1  0  0  0
  3  4  1  0  0  0
M  END
> <PLP_SCORE>
-25.948965

$$$$
header:name
header:software
header:notes
  4  3  0  0  1  0            999 V2000
  -21.5682  -43.7692    0.1379 C   0  0  0  0  0  0
  -20.2350  -43.2208    0.6472 C   0  0  0  0  0  0
  -19.3187  -44.2889    0.7357 O   0  0  0  0  0  0
  -18.6842  -44.2207    0.0171 H   0  0  0  0  0  0
  1  2  1  0  0  0
  2  3  1  0  0  0
  3  4  1  0  0  0
M  END
> <PLP_SCORE>
-27.316776

$$$$
header:name
header:software
header:notes
  4  3  0  0  1  0            999 V2000
  -25.9297  -39.7806    6.9879 C   0  0  0  0  0  0
  -25.2553  -40.3844    8.2200 C   0  0  0  0  0  0
  -25.2547  -39.4173    9.2462 O   0  0  0  0  0  0
  -26.0185  -39.5574    9.8123 H   0  0  0  0  0  0
  1  2  1  0  0  0
  2  3  1  0  0  0
  3  4  1  0  0  0
M  END
> <PLP_SCORE>
-26.493965

$$$$
header:name
header:software
header:notes
  4  3  0  0  1  0            999 V2000
  -24.9465  -35.5902    7.4732 C   0  0  0  0  0  0
  -26.2644  -36.3650    7.4645 C   0  0  0  0  0  0
  -26.8530  -36.2572    8.7413 O   0  0  0  0  0  0
  -27.4680  -36.9848    8.8678 H   0  0  0  0  0  0
  1  2  1  0  0  0
  2  3  1  0  0  0
  3  4  1  0  0  0
M  END
> <PLP_SCORE>
-25.593229

$$$$
header:name
header:software
header:notes
  4  3  0  0  1  0            999 V2000
  -25.0722  -35.4930    7.3632 C   0  0  0  0  0  0
  -26.2778  -36.4269    7.4719 C   0  0  0  0  0  0
  -26.8518  -36.2664    8.7498 O   0  0  0  0  0  0
  -26.1665  -36.3575    9.4173 H   0  0  0  0  0  0
  1  2  1  0  0  0
  2  3  1  0  0  0
  3  4  1  0  0  0
M  END
> <PLP_SCORE>
-25.256258

$$$$
header:name
header:software
header:notes
  4  3  0  0  1  0            999 V2000
  -21.5853  -43.8348    0.1203 C   0  0  0  0  0  0
  -20.3098  -43.2575    0.7345 C   0  0  0  0  0  0
  -19.3231  -44.2648    0.7411 O   0  0  0  0  0  0
  -19.6825  -45.0612    0.3408 H   0  0  0  0  0  0
  1  2  1  0  0  0
  2  3  1  0  0  0
  3  4  1  0  0  0
M  END
> <PLP_SCORE>
-30.275688

$$$$
header:name
header:software
header:notes
  4  3  0  0  1  0            999 V2000
  -25.3270  -35.1295    7.2959 C   0  0  0  0  0  0
  -26.3476  -36.2610    7.4206 C   0  0  0  0  0  0
  -26.8257  -36.2856    8.7469 O   0  0  0  0  0  0
  -26.9700  -37.1976    9.0135 H   0  0  0  0  0  0
  1  2  1  0  0  0
  2  3  1  0  0  0
  3  4  1  0  0  0
M  END
> <PLP_SCORE>
-25.533466

$$$$
header:name
header:software
header:notes
  4  3  0  0  1  0            999 V2000
  -21.6103  -44.0575    0.1695 C   0  0  0  0  0  0
  -20.3740  -43.3522    0.7278 C   0  0  0  0  0  0
  -19.2900  -44.2530    0.6851 O   0  0  0  0  0  0
  -19.3586  -44.8646    1.4232 H   0  0  0  0  0  0
  1  2  1  0  0  0
  2  3  1  0  0  0
  3  4  1  0  0  0
M  END
> <PLP_SCORE>
-29.964066

$$$$
header:name
header:software
header:notes
  4  3  0  0  1  0            999 V2000
  -19.9297  -42.0404    1.2521 C   0  0  0  0  0  0
  -20.3696  -43.3753    0.6504 C   0  0  0  0  0  0
  -19.2700  -44.2578    0.6724 O   0  0  0  0  0  0
  -19.5888  -45.1611    0.5960 H   0  0  0  0  0  0
  1  2  1  0  0  0
  2  3  1  0  0  0
  3  4  1  0  0  0
M  END
> <PLP_SCORE>
-28.718906

$$$$
header:name
header:software
header:notes
  4  3  0  0  1  0            999 V2000
  -19.9925  -42.0890    1.3828 C   0  0  0  0  0  0
  -20.3667  -43.3921    0.6761 C   0  0  0  0  0  0
  -19.2661  -44.2705    0.7493 O   0  0  0  0  0  0
  -19.5516  -45.1551    0.5054 H   0  0  0  0  0  0
  1  2  1  0  0  0
  2  3  1  0  0  0
  3  4  1  0  0  0
M  END
> <PLP_SCORE>
-29.931463

$$$$
header:name
header:software
header:notes
  4  3  0  0  1  0            999 V2000
  -20.0779  -42.0273    1.1247 C   0  0  0  0  0  0
  -20.4950  -43.3973    0.5895 C   0  0  0  0  0  0
  -19.3853  -44.2637    0.6699 O   0  0  0  0  0  0
  -19.4682  -44.8105    1.4559 H   0  0  0  0  0  0
  1  2  1  0  0  0
  2  3  1  0  0  0
  3  4  1  0  0  0
M  END
> <PLP_SCORE>
-25.448420

$$$$
header:name
header:software
header:notes
  4  3  0  0  1  0            999 V2000
  -25.3255  -35.2811    7.7431 C   0  0  0  0  0  0
  -26.2664  -36.4857    7.7091 C   0  0  0  0  0  0
  -27.2566  -36.3055    8.6966 O   0  0  0  0  0  0
  -27.0060  -35.5720    9.2647 H   0  0  0  0  0  0
  1  2  1  0  0  0
  2  3  1  0  0  0
  3  4  1  0  0  0
M  END
> <PLP_SCORE>
-25.363598

$$$$
header:name
header:software
header:notes
  4  3  0  0  1  0            999 V2000
  -21.5543  -43.9303    0.0700 C   0  0  0  0  0  0
  -20.3252  -43.3043    0.7295 C   0  0  0  0  0  0
  -19.2911  -44.2627    0.7447 O   0  0  0  0  0  0
  -19.6003  -45.0674    0.3199 H   0  0  0  0  0  0
  1  2  1  0  0  0
  2  3  1  0  0  0
  3  4  1  0  0  0
M  END
> <PLP_SCORE>
-29.944973

$$$$
header:name
header:software
header:notes
  4  3  0  0  1  0            999 V2000
  -21.5348  -43.5438    0.2261 C   0  0  0  0  0  0
  -20.1465  -43.1291    0.7138 C   0  0  0  0  0  0
  -19.3121  -44.2658    0.7017 O   0  0  0  0  0  0
  -19.1353  -44.5178   -0.2087 H   0  0  0  0  0  0
  1  2  1  0  0  0
  2  3  1  0  0  0
  3  4  1  0  0  0
M  END
> <PLP_SCORE>
-28.728998

$$$$
header:name
header:software
header:notes
  4  3  0  0  1  0            999 V2000
  -21.4414  -43.3865    0.2218 C   0  0  0  0  0  0
  -20.0366  -43.0872    0.7459 C   0  0  0  0  0  0
  -19.2786  -44.2750    0.6918 O   0  0  0  0  0  0
  -18.6223  -44.2627    1.3937 H   0  0  0  0  0  0
  1  2  1  0  0  0
  2  3  1  0  0  0
  3  4  1  0  0  0
M  END
> <PLP_SCORE>
-29.611683

$$$$
header:name
header:software
header:notes
  4  3  0  0  1  0            999 V2000
  -19.7822  -42.0536    1.4203 C   0  0  0  0  0  0
  -20.2935  -43.3268    0.7458 C   0  0  0  0  0  0
  -19.2519  -44.2772    0.7406 O   0  0  0  0  0  0
  -19.2067  -44.6911   -0.1255 H   0  0  0  0  0  0
  1  2  1  0  0  0
  2  3  1  0  0  0
  3  4  1  0  0  0
M  END
> <PLP_SCORE>
-31.131870

$$$$
header:name
header:software
header:notes
  4  3  0  0  1  0            999 V2000
  -20.0183  -42.0258    1.2330 C   0  0  0  0  0  0
  -20.4453  -43.3642    0.6298 C   0  0  0  0  0  0
  -19.3662  -44.2656    0.7371 O   0  0  0  0  0  0
  -19.4650  -44.9561    0.0761 H   0  0  0  0  0  0
  1  2  1  0  0  0
  2  3  1  0  0  0
  3  4  1  0  0  0
M  END
> <PLP_SCORE>
-25.601145

$$$$
header:name
header:software
header:notes
  4  3  0  0  1  0            999 V2000
  -25.8452  -39.6183    6.9203 C   0  0  0  0  0  0
  -25.3125  -40.2701    8.1965 C   0  0  0  0  0  0
  -25.2527  -39.2881    9.2067 O   0  0  0  0  0  0
  -26.1460  -39.0272    9.4465 H   0  0  0  0  0  0
  1  2  1  0  0  0
  2  3  1  0  0  0
  3  4  1  0  0  0
M  END
> <PLP_SCORE>
-26.237965

$$$$
header:name
header:software
header:notes
  4  3  0  0  1  0            999 V2000
  -21.6103  -43.8151    0.1878 C   0  0  0  0  0  0
  -20.2749  -43.2861    0.7114 C   0  0  0  0  0  0
  -19.3534  -44.3531    0.7397 O   0  0  0  0  0  0
  -18.7631  -44.2803   -0.0152 H   0  0  0  0  0  0
  1  2  1  0  0  0
  2  3  1  0  0  0
  3  4  1  0  0  0
M  END
> <PLP_SCORE>
-26.417925

$$$$
header:name
header:software
header:notes
  4  3  0  0  1  0            999 V2000
  -20.2406  -42.2598    1.5706 C   0  0  0  0  0  0
  -20.3795  -43.3779    0.5371 C   0  0  0  0  0  0
  -19.2817  -44.2518    0.6761 O   0  0  0  0  0  0
  -18.5386  -43.9074    0.1735 H   0  0  0  0  0  0
  1  2  1  0  0  0
  2  3  1  0  0  0
  3  4  1  0  0  0
M  END
> <PLP_SCORE>
-27.760948

$$$$
header:name
header:software
header:notes
  4  3  0  0  1  0            999 V2000
  -20.5877  -42.2997    1.1394 C   0  0  0  0  0  0
  -20.6167  -43.7491    0.6538 C   0  0  0  0  0  0
  -19.3070  -44.2673    0.7198 O   0  0  0  0  0  0
  -19.1732  -44.6784    1.5781 H   0  0  0  0  0  0
  1  2  1  0  0  0
  2  3  1  0  0  0
  3  4  1  0  0  0
M  END
> <PLP_SCORE>
-27.749592

$$$$
header:name
header:software
header:notes
  4  3  0  0  1  0            999 V2000
  -25.9005  -39.8714    6.9617 C   0  0  0  0  0  0
  -25.2974  -40.4530    8.2405 C   0  0  0  0  0  0
  -25.2861  -39.4448    9.2263 O   0  0  0  0  0  0
  -25.5515  -38.6113    8.8282 H   0  0  0  0  0  0
  1  2  1  0  0  0
  2  3  1  0  0  0
  3  4  1  0  0  0
M  END
> <PLP_SCORE>
-25.388208

$$$$
header:name
header:software
header:notes
  4  3  0  0  1  0            999 V2000
  -21.4224  -43.2634    0.4619 C   0  0  0  0  0  0
  -19.9362  -43.0332    0.7372 C   0  0  0  0  0  0
  -19.2587  -44.2596    0.5783 O   0  0  0  0  0  0
  -19.8010  -44.9683    0.9349 H   0  0  0  0  0  0
  1  2  1  0  0  0
  2  3  1  0  0  0
  3  4  1  0  0  0
M  END
> <PLP_SCORE>
-26.055029

$$$$
header:name
header:software
header:notes
  4  3  0  0  1  0            999 V2000
  -20.2926  -42.1110    0.8601 C   0  0  0  0  0  0
  -20.5545  -43.6125    0.7407 C   0  0  0  0  0  0
  -19.3136  -44.2822    0.7358 O   0  0  0  0  0  0
  -19.2926  -44.9023    0.0020 H   0  0  0  0  0  0
  1  2  1  0  0  0
  2  3  1  0  0  0
  3  4  1  0  0  0
M  END
> <PLP_SCORE>
-27.259451

$$$$
header:name
header:software
header:notes
  4  3  0  0  1  0            999 V2000
  -25.3656  -35.1174    7.2098 C   0  0  0  0  0  0
  -26.2687  -36.3341    7.4136 C   0  0  0  0  0  0
  -26.7797  -36.2945    8.7272 O   0  0  0  0  0  0
  -27.4611  -35.6189    8.7804 H   0  0  0  0  0  0
  1  2  1  0  0  0
  2  3  1  0  0  0
  3  4  1  0  0  0
M  END
> <PLP_SCORE>
-25.690702

$$$$
header:name
header:software
header:notes
  4  3  0  0  1  0            999 V2000
  -19.7894  -42.0513    1.4898 C   0  0  0  0  0  0
  -20.2077  -43.2016    0.5737 C   0  0  0  0  0  0
  -19.2973  -44.2641    0.7486 O   0  0  0  0  0  0
  -19.2887  -44.5231    1.6740 H   0  0  0  0  0  0
  1  2  1  0  0  0
  2  3  1  0  0  0
  3  4  1  0  0  0
M  END
> <PLP_SCORE>
-28.356276

$$$$
header:name
header:software
header:notes
  4  3  0  0  1  0            999 V2000
  -19.8350  -42.1343    1.6315 C   0  0  0  0  0  0
  -20.2722  -43.2683    0.7040 C   0  0  0  0  0  0
  -19.2907  -44.2799    0.7438 O   0  0  0  0  0  0
  -19.4594  -44.9112    0.0391 H   0  0  0  0  0  0
  1  2  1  0  0  0
  2  3  1  0  0  0
  3  4  1  0  0  0
M  END
> <PLP_SCORE>
-30.787560

$$$$
header:name
header:software
header:notes
  4  3  0  0  1  0            999 V2000
  -19.8493  -42.0326    1.3845 C   0  0  0  0  0  0
  -20.3340  -43.3260    0.7291 C   0  0  0  0  0  0
  -19.2708  -44.2523    0.7316 O   0  0  0  0  0  0
  -19.2964  -44.7642   -0.0813 H   0  0  0  0  0  0
  1  2  1  0  0  0
  2  3  1  0  0  0
  3  4  1  0  0  0
M  END
> <PLP_SCORE>
-30.997976

$$$$
header:name
header:software
header:notes
  4  3  0  0  1  0            999 V2000
  -18.2923  -39.8095    0.6875 C   0  0  0  0  0  0
  -19.3301  -40.7887    1.2368 C   0  0  0  0  0  0
  -18.7889  -42.0895    1.1802 O   0  0  0  0  0  0
  -18.5124  -42.2773    0.2792 H   0  0  0  0  0  0
  1  2  1  0  0  0
  2  3  1  0  0  0
  3  4  1  0  0  0
M  END
> <PLP_SCORE>
-24.614002

$$$$
header:name
header:software
header:notes
  4  3  0  0  1  0            999 V2000
  -21.5955  -43.9267    0.2287 C   0  0  0  0  0  0
  -20.2946  -43.3024    0.7338 C   0  0  0  0  0  0
  -19.2948  -44.2967    0.7361 O   0  0  0  0  0  0
  -19.2580  -44.7053    1.6051 H   0  0  0  0  0  0
  1  2  1  0  0  0
  2  3  1  0  0  0
  3  4  1  0  0  0
M  END
> <PLP_SCORE>
-30.589367

$$$$
header:name
header:software
header:notes
  4  3  0  0  1  0            999 V2000
  -19.8195  -42.0369    1.4137 C   0  0  0  0  0  0
  -20.3109  -43.2890    0.6870 C   0  0  0  0  0  0
  -19.2800  -44.2508    0.7099 O   0  0  0  0  0  0
  -19.4191  -44.8794   -0.0036 H   0  0  0  0  0  0
  1  2  1  0  0  0
  2  3  1  0  0  0
  3  4  1  0  0  0
M  END
> <PLP_SCORE>
-30.634735

$$$$
header:name
header:software
header:notes
  4  3  0  0  1  0            999 V2000
  -25.4353  -35.0857    7.1873 C   0  0  0  0  0  0
  -26.2642  -36.3438    7.4473 C   0  0  0  0  0  0
  -26.7995  -36.2632    8.7493 O   0  0  0  0  0  0
  -27.3852  -37.0109    8.8965 H   0  0  0  0  0  0
  1  2  1  0  0  0
  2  3  1  0  0  0
  3  4  1  0  0  0
M  END
> <PLP_SCORE>
-26.287348

$$$$
header:name
header:software
header:notes
  4  3  0  0  1  0            999 V2000
  -24.9330  -41.7460    7.9642 C   0  0  0  0  0  0
  -25.2795  -40.2575    7.9222 C   0  0  0  0  0  0
  -25.2547  -39.7570    9.2403 O   0  0  0  0  0  0
  -25.0031  -38.8297    9.2210 H   0  0  0  0  0  0
  1  2  1  0  0  0
  2  3  1  0  0  0
  3  4  1  0  0  0
M  END
> <PLP_SCORE>
-26.200438

$$$$
header:name
header:software
header:notes
  4  3  0  0  1  0            999 V2000
  -25.3331  -35.1182    7.2280 C   0  0  0  0  0  0
  -26.3138  -36.2795    7.3922 C   0  0  0  0  0  0
  -26.7606  -36.2996    8.7295 O   0  0  0  0  0  0
  -27.6148  -36.7381    8.7703 H   0  0  0  0  0  0
  1  2  1  0  0  0
  2  3  1  0  0  0
  3  4  1  0  0  0
M  END
> <PLP_SCORE>
-26.018156

$$$$
header:name
header:software
header:notes
  4  3  0  0  1  0            999 V2000
  -24.8774  -41.8705    8.0561 C   0  0  0  0  0  0
  -25.2861  -40.4012    7.9482 C   0  0  0  0  0  0
  -25.2885  -39.8433    9.2432 O   0  0  0  0  0  0
  -25.5319  -38.9153    9.1866 H   0  0  0  0  0  0
  1  2  1  0  0  0
  2  3  1  0  0  0
  3  4  1  0  0  0
M  END
> <PLP_SCORE>
-25.127310

$$$$
