header:name
header:software
header:notes
 32 34  0  0  1  0            999 V2000
  -21.9851  -35.3160   -1.4749 C   0  0  0  0  0  0
  -22.6823  -33.4582   -3.0340 C   0  0  0  0  0  0
  -28.3941  -37.7714   -3.3049 C   0  0  0  0  0  0
  -30.1764  -36.1885   -1.7068 C   0  0  0  0  0  0
  -25.2309  -41.2212    6.8901 C   0  0  0  0  0  0
  -24.7500  -40.3472    5.8962 C   0  0  0  0  0  0
  -25.4838  -40.7020    8.1750 C   0  0  0  0  0  0
  -26.8450  -36.7151    1.9508 C   0  0  0  0  0  0
  -24.8307  -38.5746    7.5422 C   0  0  0  0  0  0
  -26.8092  -38.0472   -1.4017 C   0  0  0  0  0  0
  -24.2707  -34.2709   -1.1990 C   0  0  0  0  0  0
  -25.6092  -33.8667   -1.8458 C   0  0  0  0  0  0
  -24.0338  -37.9788    5.2033 C   0  0  0  0  0  0
  -24.5383  -38.9891    6.2249 C   0  0  0  0  0  0
  -27.4095  -36.9624    0.7363 C   0  0  0  0  0  0
  -25.5427  -37.2900    1.7881 C   0  0  0  0  0  0
  -28.7384  -36.5649    0.2407 C   0  0  0  0  0  0
  -23.1675  -34.6577   -2.2030 C   0  0  0  0  0  0
  -24.5319  -37.2099    2.8928 C   0  0  0  0  0  0
  -26.9893  -35.8146   -2.5482 C   0  0  0  0  0  0
  -27.8101  -37.0437   -2.0655 C   0  0  0  0  0  0
  -25.2914  -39.4062    8.5014 N   0  0  0  0  0  0
  -25.3648  -37.8525    0.5878 N   0  0  0  0  0  0
  -26.6027  -34.9098   -1.6323 N   0  0  0  0  0  0
  -24.8759  -37.8540    4.0189 N   0  0  0  0  0  0
  -26.5256  -37.6221   -0.0551 N   0  0  0  0  0  0
  -28.9079  -36.6392   -1.1120 N   0  0  0  0  0  0
  -29.5978  -36.1673    1.0281 O   0  0  0  0  0  0
  -23.4647  -36.6146    2.7422 O   0  0  0  0  0  0
  -26.6668  -35.7237   -3.7336 O   0  0  0  0  0  0
  -26.9258  -35.0349   -0.6838 H   0  0  0  0  0  0
  -25.7760  -38.3115    4.0427 H   0  0  0  0  0  0
  1 18  1  0  0  0
  2 18  1  0  0  0
  3 21  1  0  0  0
  4 27  1  0  0  0
  5  6  1  0  0  0
  5  7  2  0  0  0
  6 14  2  0  0  0
  7 22  1  0  0  0
  8 15  2  0  0  0
  8 16  1  0  0  0
  9 14  1  0  0  0
  9 22  2  0  0  0
 10 21  1  0  0  0
 10 26  1  0  0  0
 11 12  1  0  0  0
 11 18  1  0  0  0
 12 24  1  0  0  0
 13 14  1  0  0  0
 13 25  1  0  0  0
 15 17  1  0  0  0
 15 26  1  0  0  0
 16 19  1  0  0  0
 16 23  2  0  0  0
 17 27  1  0  0  0
 17 28  2  0  0  0
 19 25  1  0  0  0
 19 29  2  0  0  0
 20 21  1  0  0  0
 20 24  1  0  0  0
 20 30  2  0  0  0
 21 27  1  0  0  0
 23 26  1  0  0  0
 24 31  1  0  0  0
 25 32  1  0  0  0
M  END
> <PLP_SCORE>
-12.537923

$$$$
