header:name
header:software
header:notes
 12 12  0  0  1  0            999 V2000
   -1.6392   15.5849   18.2531 C   0  0  0  0  0  0
   -1.1013   14.3889   18.7133 C   0  0  0  0  0  0
   -1.1669   13.2476   17.9228 C   0  0  0  0  0  0
   -1.7706   13.3024   16.6720 C   0  0  0  0  0  0
   -2.3085   14.4984   16.2119 C   0  0  0  0  0  0
   -2.2428   15.6397   17.0023 C   0  0  0  0  0  0
   -1.5683   16.8166   19.1063 C   0  0  0  0  0  0
   -1.7588   17.9508   18.5887 N   0  0  0  0  0  0
   -1.2794   16.7059   20.5331 N   0  0  0  0  0  0
   -1.6875   18.7076   19.2541 H   0  0  0  0  0  0
   -1.2313   17.5579   21.1188 H   0  0  0  0  0  0
   -1.1228   15.7756   20.9589 H   0  0  0  0  0  0
  1  2  2  0  0  0
  1  6  1  0  0  0
  1  7  1  0  0  0
  2  3  1  0  0  0
  3  4  2  0  0  0
  4  5  1  0  0  0
  5  6  2  0  0  0
  7  8  2  0  0  0
  7  9  1  0  0  0
  8 10  1  0  0  0
  9 11  1  0  0  0
  9 12  1  0  0  0
M  END
> <PLP_SCORE>
-38.800274

$$$$
header:name
header:software
header:notes
 12 12  0  0  1  0            999 V2000
   -1.7077   13.9379   17.0241 C   0  0  0  0  0  0
   -0.7248   13.2111   17.6852 C   0  0  0  0  0  0
   -0.2800   13.6217   18.9363 C   0  0  0  0  0  0
   -0.8182   14.7592   19.5263 C   0  0  0  0  0  0
   -1.8011   15.4860   18.8651 C   0  0  0  0  0  0
   -2.2459   15.0754   17.6141 C   0  0  0  0  0  0
   -2.1877   13.4947   15.6738 C   0  0  0  0  0  0
   -2.8306   14.2956   14.9418 N   0  0  0  0  0  0
   -1.9128   12.1396   15.2052 N   0  0  0  0  0  0
   -3.1038   13.8923   14.0568 H   0  0  0  0  0  0
   -2.2455   11.8371   14.2729 H   0  0  0  0  0  0
   -1.3853   11.4814   15.8051 H   0  0  0  0  0  0
  1  2  2  0  0  0
  1  6  1  0  0  0
  1  7  1  0  0  0
  2  3  1  0  0  0
  3  4  2  0  0  0
  4  5  1  0  0  0
  5  6  2  0  0  0
  7  8  2  0  0  0
  7  9  1  0  0  0
  8 10  1  0  0  0
  9 11  1  0  0  0
  9 12  1  0  0  0
M  END
> <PLP_SCORE>
-39.251846

$$$$
header:name
header:software
header:notes
 12 12  0  0  1  0            999 V2000
   -1.3097   15.9045   17.3665 C   0  0  0  0  0  0
   -0.8002   15.7112   18.6450 C   0  0  0  0  0  0
   -0.7770   14.4367   19.1986 C   0  0  0  0  0  0
   -1.2634   13.3552   18.4737 C   0  0  0  0  0  0
   -1.7729   13.5484   17.1951 C   0  0  0  0  0  0
   -1.7960   14.8230   16.6415 C   0  0  0  0  0  0
   -1.3346   17.2801   16.7690 C   0  0  0  0  0  0
   -2.3090   17.6357   16.0516 N   0  0  0  0  0  0
   -0.2345   18.2078   17.0156 N   0  0  0  0  0  0
   -2.2213   18.5796   15.7026 H   0  0  0  0  0  0
   -0.2550   19.1563   16.6018 H   0  0  0  0  0  0
    0.5657   17.9171   17.6041 H   0  0  0  0  0  0
  1  2  2  0  0  0
  1  6  1  0  0  0
  1  7  1  0  0  0
  2  3  1  0  0  0
  3  4  2  0  0  0
  4  5  1  0  0  0
  5  6  2  0  0  0
  7  8  2  0  0  0
  7  9  1  0  0  0
  8 10  1  0  0  0
  9 11  1  0  0  0
  9 12  1  0  0  0
M  END
> <PLP_SCORE>
-38.774620

$$$$
header:name
header:software
header:notes
 12 12  0  0  1  0            999 V2000
   -1.7689   15.9298   18.0570 C   0  0  0  0  0  0
   -1.7872   14.6186   18.5173 C   0  0  0  0  0  0
   -1.7940   13.5642   17.6119 C   0  0  0  0  0  0
   -1.7826   13.8210   16.2460 C   0  0  0  0  0  0
   -1.7643   15.1322   15.7857 C   0  0  0  0  0  0
   -1.7574   16.1866   16.6911 C   0  0  0  0  0  0
   -1.7615   17.0678   19.0342 C   0  0  0  0  0  0
   -2.1652   18.2072   18.6745 N   0  0  0  0  0  0
   -1.2885   16.8600   20.3997 N   0  0  0  0  0  0
   -2.1162   18.8964   19.4113 H   0  0  0  0  0  0
   -1.2848   17.6473   21.0714 H   0  0  0  0  0  0
   -0.9570   15.9253   20.6961 H   0  0  0  0  0  0
  1  2  2  0  0  0
  1  6  1  0  0  0
  1  7  1  0  0  0
  2  3  1  0  0  0
  3  4  2  0  0  0
  4  5  1  0  0  0
  5  6  2  0  0  0
  7  8  2  0  0  0
  7  9  1  0  0  0
  8 10  1  0  0  0
  9 11  1  0  0  0
  9 12  1  0  0  0
M  END
> <PLP_SCORE>
-37.285690

$$$$
header:name
header:software
header:notes
 12 12  0  0  1  0            999 V2000
   -1.6845   14.3887   17.2201 C   0  0  0  0  0  0
   -1.0627   13.7598   18.2922 C   0  0  0  0  0  0
   -0.9139   14.4305   19.5003 C   0  0  0  0  0  0
   -1.3869   15.7303   19.6364 C   0  0  0  0  0  0
   -2.0087   16.3592   18.5643 C   0  0  0  0  0  0
   -2.1576   15.6885   17.3561 C   0  0  0  0  0  0
   -1.8452   13.6647   15.9162 C   0  0  0  0  0  0
   -2.7917   13.9703   15.1407 N   0  0  0  0  0  0
   -0.9095   12.6080   15.5429 N   0  0  0  0  0  0
   -2.8039   13.4201   14.2935 H   0  0  0  0  0  0
   -1.0233   12.1106   14.6424 H   0  0  0  0  0  0
   -0.1324   12.3564   16.1785 H   0  0  0  0  0  0
  1  2  2  0  0  0
  1  6  1  0  0  0
  1  7  1  0  0  0
  2  3  1  0  0  0
  3  4  2  0  0  0
  4  5  1  0  0  0
  5  6  2  0  0  0
  7  8  2  0  0  0
  7  9  1  0  0  0
  8 10  1  0  0  0
  9 11  1  0  0  0
  9 12  1  0  0  0
M  END
> <PLP_SCORE>
-37.981297

$$$$
header:name
header:software
header:notes
 12 12  0  0  1  0            999 V2000
   -1.6677   14.3982   16.5160 C   0  0  0  0  0  0
   -1.9038   15.7527   16.7190 C   0  0  0  0  0  0
   -1.4736   16.3653   17.8900 C   0  0  0  0  0  0
   -0.8072   15.6234   18.8581 C   0  0  0  0  0  0
   -0.5711   14.2689   18.6551 C   0  0  0  0  0  0
   -1.0013   13.6563   17.4841 C   0  0  0  0  0  0
   -2.1320   13.7371   15.2521 C   0  0  0  0  0  0
   -2.0084   12.4896   15.1139 N   0  0  0  0  0  0
   -2.7262   14.5335   14.1824 N   0  0  0  0  0  0
   -2.3534   12.1526   14.2262 H   0  0  0  0  0  0
   -3.0456   14.0740   13.3117 H   0  0  0  0  0  0
   -2.8282   15.5573   14.2947 H   0  0  0  0  0  0
  1  2  2  0  0  0
  1  6  1  0  0  0
  1  7  1  0  0  0
  2  3  1  0  0  0
  3  4  2  0  0  0
  4  5  1  0  0  0
  5  6  2  0  0  0
  7  8  2  0  0  0
  7  9  1  0  0  0
  8 10  1  0  0  0
  9 11  1  0  0  0
  9 12  1  0  0  0
M  END
> <PLP_SCORE>
-37.084885

$$$$
header:name
header:software
header:notes
 12 12  0  0  1  0            999 V2000
   -2.0028   14.3394   17.0546 C   0  0  0  0  0  0
   -1.2618   13.6840   18.0308 C   0  0  0  0  0  0
   -0.9114   14.3483   19.2003 C   0  0  0  0  0  0
   -1.3023   15.6680   19.3936 C   0  0  0  0  0  0
   -2.0433   16.3233   18.4174 C   0  0  0  0  0  0
   -2.3936   15.6591   17.2480 C   0  0  0  0  0  0
   -2.3809   13.6224   15.7924 C   0  0  0  0  0  0
   -1.8801   12.4933   15.5375 N   0  0  0  0  0  0
   -3.3264   14.2277   14.8591 N   0  0  0  0  0  0
   -2.2043   12.1036   14.6637 H   0  0  0  0  0  0
   -3.5851   13.7302   13.9892 H   0  0  0  0  0  0
   -3.7380   15.1543   15.0673 H   0  0  0  0  0  0
  1  2  2  0  0  0
  1  6  1  0  0  0
  1  7  1  0  0  0
  2  3  1  0  0  0
  3  4  2  0  0  0
  4  5  1  0  0  0
  5  6  2  0  0  0
  7  8  2  0  0  0
  7  9  1  0  0  0
  8 10  1  0  0  0
  9 11  1  0  0  0
  9 12  1  0  0  0
M  END
> <PLP_SCORE>
-48.459885

$$$$
header:name
header:software
header:notes
 12 12  0  0  1  0            999 V2000
   -1.4534   15.9891   17.8363 C   0  0  0  0  0  0
   -1.8148   15.1161   16.8170 C   0  0  0  0  0  0
   -1.7552   13.7431   17.0242 C   0  0  0  0  0  0
   -1.3341   13.2431   18.2508 C   0  0  0  0  0  0
   -0.9727   14.1161   19.2700 C   0  0  0  0  0  0
   -1.0324   15.4891   19.0628 C   0  0  0  0  0  0
   -1.5179   17.4710   17.6126 C   0  0  0  0  0  0
   -1.3081   17.9420   16.4616 N   0  0  0  0  0  0
   -1.8226   18.3686   18.7229 N   0  0  0  0  0  0
   -1.3769   18.9493   16.4266 H   0  0  0  0  0  0
   -1.8663   19.3906   18.5650 H   0  0  0  0  0  0
   -1.9949   17.9832   19.6679 H   0  0  0  0  0  0
  1  2  2  0  0  0
  1  6  1  0  0  0
  1  7  1  0  0  0
  2  3  1  0  0  0
  3  4  2  0  0  0
  4  5  1  0  0  0
  5  6  2  0  0  0
  7  8  2  0  0  0
  7  9  1  0  0  0
  8 10  1  0  0  0
  9 11  1  0  0  0
  9 12  1  0  0  0
M  END
> <PLP_SCORE>
-40.474697

$$$$
header:name
header:software
header:notes
 12 12  0  0  1  0            999 V2000
   -1.6967   14.2891   16.9746 C   0  0  0  0  0  0
   -2.0918   15.5969   17.2298 C   0  0  0  0  0  0
   -1.6497   16.2451   18.3770 C   0  0  0  0  0  0
   -0.8125   15.5856   19.2690 C   0  0  0  0  0  0
   -0.4174   14.2777   19.0137 C   0  0  0  0  0  0
   -0.8595   13.6295   17.8666 C   0  0  0  0  0  0
   -2.1739   13.5895   15.7364 C   0  0  0  0  0  0
   -2.9756   14.1714   14.9559 N   0  0  0  0  0  0
   -1.7130   12.2379   15.4329 N   0  0  0  0  0  0
   -3.2295   13.6088   14.1561 H   0  0  0  0  0  0
   -2.0442   11.7582   14.5776 H   0  0  0  0  0  0
   -1.0550   11.7594   16.0728 H   0  0  0  0  0  0
  1  2  2  0  0  0
  1  6  1  0  0  0
  1  7  1  0  0  0
  2  3  1  0  0  0
  3  4  2  0  0  0
  4  5  1  0  0  0
  5  6  2  0  0  0
  7  8  2  0  0  0
  7  9  1  0  0  0
  8 10  1  0  0  0
  9 11  1  0  0  0
  9 12  1  0  0  0
M  END
> <PLP_SCORE>
-39.720001

$$$$
header:name
header:software
header:notes
 12 12  0  0  1  0            999 V2000
   -1.6880   14.3544   17.1617 C   0  0  0  0  0  0
   -1.7065   15.7409   17.0667 C   0  0  0  0  0  0
   -1.2942   16.5168   18.1436 C   0  0  0  0  0  0
   -0.8633   15.9063   19.3154 C   0  0  0  0  0  0
   -0.8448   14.5198   19.4104 C   0  0  0  0  0  0
   -1.2571   13.7439   18.3336 C   0  0  0  0  0  0
   -2.1329   13.5171   15.9994 C   0  0  0  0  0  0
   -1.5396   12.4343   15.7419 N   0  0  0  0  0  0
   -3.2501   13.9518   15.1662 N   0  0  0  0  0  0
   -1.9216   11.9535   14.9398 H   0  0  0  0  0  0
   -3.5546   13.3715   14.3651 H   0  0  0  0  0  0
   -3.7378   14.8402   15.3766 H   0  0  0  0  0  0
  1  2  2  0  0  0
  1  6  1  0  0  0
  1  7  1  0  0  0
  2  3  1  0  0  0
  3  4  2  0  0  0
  4  5  1  0  0  0
  5  6  2  0  0  0
  7  8  2  0  0  0
  7  9  1  0  0  0
  8 10  1  0  0  0
  9 11  1  0  0  0
  9 12  1  0  0  0
M  END
> <PLP_SCORE>
-39.297180

$$$$
header:name
header:software
header:notes
 12 12  0  0  1  0            999 V2000
   -1.4367   16.3641   17.7664 C   0  0  0  0  0  0
   -0.6523   15.3902   18.3727 C   0  0  0  0  0  0
   -0.8105   14.0540   18.0244 C   0  0  0  0  0  0
   -1.7533   13.6918   17.0695 C   0  0  0  0  0  0
   -2.5378   14.6657   16.4632 C   0  0  0  0  0  0
   -2.3795   16.0019   16.8115 C   0  0  0  0  0  0
   -1.2659   17.8061   18.1424 C   0  0  0  0  0  0
   -0.2668   18.1631   18.8244 N   0  0  0  0  0  0
   -2.2522   18.7967   17.7212 N   0  0  0  0  0  0
   -0.2530   19.1543   19.0190 H   0  0  0  0  0  0
   -2.1311   19.7908   17.9823 H   0  0  0  0  0  0
   -3.0725   18.5048   17.1615 H   0  0  0  0  0  0
  1  2  2  0  0  0
  1  6  1  0  0  0
  1  7  1  0  0  0
  2  3  1  0  0  0
  3  4  2  0  0  0
  4  5  1  0  0  0
  5  6  2  0  0  0
  7  8  2  0  0  0
  7  9  1  0  0  0
  8 10  1  0  0  0
  9 11  1  0  0  0
  9 12  1  0  0  0
M  END
> <PLP_SCORE>
-38.675468

$$$$
header:name
header:software
header:notes
 12 12  0  0  1  0            999 V2000
   -2.1676   14.2334   16.9075 C   0  0  0  0  0  0
   -2.7499   15.4894   17.0293 C   0  0  0  0  0  0
   -2.5648   16.2316   18.1897 C   0  0  0  0  0  0
   -1.7974   15.7178   19.2283 C   0  0  0  0  0  0
   -1.2151   14.4617   19.1065 C   0  0  0  0  0  0
   -1.4002   13.7195   17.9461 C   0  0  0  0  0  0
   -2.3673   13.4324   15.6550 C   0  0  0  0  0  0
   -1.9498   12.2437   15.5965 N   0  0  0  0  0  0
   -3.0432   14.0248   14.5045 N   0  0  0  0  0  0
   -2.1377   11.8005   14.7084 H   0  0  0  0  0  0
   -3.1794   13.4692   13.6420 H   0  0  0  0  0  0
   -3.3863   15.0002   14.5514 H   0  0  0  0  0  0
  1  2  2  0  0  0
  1  6  1  0  0  0
  1  7  1  0  0  0
  2  3  1  0  0  0
  3  4  2  0  0  0
  4  5  1  0  0  0
  5  6  2  0  0  0
  7  8  2  0  0  0
  7  9  1  0  0  0
  8 10  1  0  0  0
  9 11  1  0  0  0
  9 12  1  0  0  0
M  END
> <PLP_SCORE>
-43.680794

$$$$
header:name
header:software
header:notes
 12 12  0  0  1  0            999 V2000
   -1.0694   15.6993   18.5738 C   0  0  0  0  0  0
   -2.0832   15.7919   17.6277 C   0  0  0  0  0  0
   -2.4292   14.6802   16.8687 C   0  0  0  0  0  0
   -1.7613   13.4758   17.0559 C   0  0  0  0  0  0
   -0.7475   13.3832   18.0021 C   0  0  0  0  0  0
   -0.4015   14.4949   18.7610 C   0  0  0  0  0  0
   -0.6961   16.8992   19.3930 C   0  0  0  0  0  0
   -1.4143   17.9351   19.3529 N   0  0  0  0  0  0
    0.4957   16.8710   20.2359 N   0  0  0  0  0  0
   -1.0699   18.6798   19.9422 H   0  0  0  0  0  0
    0.7502   17.7006   20.7998 H   0  0  0  0  0  0
    1.0858   16.0214   20.2696 H   0  0  0  0  0  0
  1  2  2  0  0  0
  1  6  1  0  0  0
  1  7  1  0  0  0
  2  3  1  0  0  0
  3  4  2  0  0  0
  4  5  1  0  0  0
  5  6  2  0  0  0
  7  8  2  0  0  0
  7  9  1  0  0  0
  8 10  1  0  0  0
  9 11  1  0  0  0
  9 12  1  0  0  0
M  END
> <PLP_SCORE>
-35.610729

$$$$
header:name
header:software
header:notes
 12 12  0  0  1  0            999 V2000
   -1.7453   14.2441   16.8944 C   0  0  0  0  0  0
   -2.1813   15.5561   17.0355 C   0  0  0  0  0  0
   -1.7359   16.3255   18.1038 C   0  0  0  0  0  0
   -0.8544   15.7827   19.0311 C   0  0  0  0  0  0
   -0.4183   14.4706   18.8901 C   0  0  0  0  0  0
   -0.8637   13.7013   17.8217 C   0  0  0  0  0  0
   -2.2260   13.4138   15.7413 C   0  0  0  0  0  0
   -2.9247   13.9432   14.8345 N   0  0  0  0  0  0
   -1.8874   11.9957   15.6660 N   0  0  0  0  0  0
   -3.1923   13.2929   14.1092 H   0  0  0  0  0  0
   -2.2207   11.4258   14.8689 H   0  0  0  0  0  0
   -1.3140   11.5602   16.4095 H   0  0  0  0  0  0
  1  2  2  0  0  0
  1  6  1  0  0  0
  1  7  1  0  0  0
  2  3  1  0  0  0
  3  4  2  0  0  0
  4  5  1  0  0  0
  5  6  2  0  0  0
  7  8  2  0  0  0
  7  9  1  0  0  0
  8 10  1  0  0  0
  9 11  1  0  0  0
  9 12  1  0  0  0
M  END
> <PLP_SCORE>
-40.840401

$$$$
header:name
header:software
header:notes
 12 12  0  0  1  0            999 V2000
   -1.8145   14.2130   16.8730 C   0  0  0  0  0  0
   -1.0463   13.6175   17.8665 C   0  0  0  0  0  0
   -0.6349   14.3609   18.9663 C   0  0  0  0  0  0
   -0.9918   15.7000   19.0728 C   0  0  0  0  0  0
   -1.7600   16.2955   18.0794 C   0  0  0  0  0  0
   -2.1713   15.5521   16.9795 C   0  0  0  0  0  0
   -2.2585   13.4106   15.6860 C   0  0  0  0  0  0
   -2.8879   13.9720   14.7484 N   0  0  0  0  0  0
   -1.9640   11.9825   15.6134 N   0  0  0  0  0  0
   -3.1368   13.3381   14.0022 H   0  0  0  0  0  0
   -2.2718   11.4318   14.7929 H   0  0  0  0  0  0
   -1.4475   11.5207   16.3823 H   0  0  0  0  0  0
  1  2  2  0  0  0
  1  6  1  0  0  0
  1  7  1  0  0  0
  2  3  1  0  0  0
  3  4  2  0  0  0
  4  5  1  0  0  0
  5  6  2  0  0  0
  7  8  2  0  0  0
  7  9  1  0  0  0
  8 10  1  0  0  0
  9 11  1  0  0  0
  9 12  1  0  0  0
M  END
> <PLP_SCORE>
-44.394505

$$$$
header:name
header:software
header:notes
 12 12  0  0  1  0            999 V2000
   -1.8432   14.3587   16.4704 C   0  0  0  0  0  0
   -1.2773   13.7602   17.5899 C   0  0  0  0  0  0
   -1.1069   14.4931   18.7584 C   0  0  0  0  0  0
   -1.5024   15.8246   18.8074 C   0  0  0  0  0  0
   -2.0683   16.4231   17.6880 C   0  0  0  0  0  0
   -2.2387   15.6902   16.5195 C   0  0  0  0  0  0
   -2.0271   13.5676   15.2093 C   0  0  0  0  0  0
   -1.8433   12.3199   15.2182 N   0  0  0  0  0  0
   -2.4181   14.2377   13.9725 N   0  0  0  0  0  0
   -1.9946   11.8900   14.3166 H   0  0  0  0  0  0
   -2.5443   13.6887   13.1042 H   0  0  0  0  0  0
   -2.5693   15.2616   13.9640 H   0  0  0  0  0  0
  1  2  2  0  0  0
  1  6  1  0  0  0
  1  7  1  0  0  0
  2  3  1  0  0  0
  3  4  2  0  0  0
  4  5  1  0  0  0
  5  6  2  0  0  0
  7  8  2  0  0  0
  7  9  1  0  0  0
  8 10  1  0  0  0
  9 11  1  0  0  0
  9 12  1  0  0  0
M  END
> <PLP_SCORE>
-44.180267

$$$$
header:name
header:software
header:notes
 12 12  0  0  1  0            999 V2000
   -1.5851   14.0115   17.0132 C   0  0  0  0  0  0
   -2.4319   15.0683   16.7005 C   0  0  0  0  0  0
   -2.6305   16.0943   17.6167 C   0  0  0  0  0  0
   -1.9823   16.0636   18.8458 C   0  0  0  0  0  0
   -1.1355   15.0068   19.1585 C   0  0  0  0  0  0
   -0.9369   13.9808   18.2422 C   0  0  0  0  0  0
   -1.3708   12.9042   16.0242 C   0  0  0  0  0  0
   -2.2591   12.6476   15.1665 N   0  0  0  0  0  0
   -0.1375   12.1235   16.0519 N   0  0  0  0  0  0
   -2.0098   11.8847   14.5531 H   0  0  0  0  0  0
    0.0072   11.3602   15.3680 H   0  0  0  0  0  0
    0.5922   12.3332   16.7554 H   0  0  0  0  0  0
  1  2  2  0  0  0
  1  6  1  0  0  0
  1  7  1  0  0  0
  2  3  1  0  0  0
  3  4  2  0  0  0
  4  5  1  0  0  0
  5  6  2  0  0  0
  7  8  2  0  0  0
  7  9  1  0  0  0
  8 10  1  0  0  0
  9 11  1  0  0  0
  9 12  1  0  0  0
M  END
> <PLP_SCORE>
-39.870934

$$$$
header:name
header:software
header:notes
 12 12  0  0  1  0            999 V2000
   -1.6157   14.4660   17.6846 C   0  0  0  0  0  0
   -1.0869   13.3707   17.0121 C   0  0  0  0  0  0
   -1.4202   13.1446   15.6819 C   0  0  0  0  0  0
   -2.2825   14.0139   15.0242 C   0  0  0  0  0  0
   -2.8114   15.1092   15.6968 C   0  0  0  0  0  0
   -2.4780   15.3353   17.0269 C   0  0  0  0  0  0
   -1.2558   14.7099   19.1203 C   0  0  0  0  0  0
   -1.3524   13.7737   19.9597 N   0  0  0  0  0  0
   -0.7943   16.0273   19.5479 N   0  0  0  0  0  0
   -1.0849   14.0493   20.8941 H   0  0  0  0  0  0
   -0.5467   16.1921   20.5393 H   0  0  0  0  0  0
   -0.7146   16.7964   18.8599 H   0  0  0  0  0  0
  1  2  2  0  0  0
  1  6  1  0  0  0
  1  7  1  0  0  0
  2  3  1  0  0  0
  3  4  2  0  0  0
  4  5  1  0  0  0
  5  6  2  0  0  0
  7  8  2  0  0  0
  7  9  1  0  0  0
  8 10  1  0  0  0
  9 11  1  0  0  0
  9 12  1  0  0  0
M  END
> <PLP_SCORE>
-38.245434

$$$$
header:name
header:software
header:notes
 12 12  0  0  1  0            999 V2000
   -1.9201   14.6163   16.6028 C   0  0  0  0  0  0
   -2.0940   15.9886   16.4684 C   0  0  0  0  0  0
   -2.0275   16.8105   17.5871 C   0  0  0  0  0  0
   -1.7869   16.2601   18.8405 C   0  0  0  0  0  0
   -1.6130   14.8878   18.9750 C   0  0  0  0  0  0
   -1.6795   14.0659   17.8562 C   0  0  0  0  0  0
   -1.9919   13.7293   15.3953 C   0  0  0  0  0  0
   -1.7522   12.4961   15.5068 N   0  0  0  0  0  0
   -2.3383   14.2894   14.0923 N   0  0  0  0  0  0
   -1.8294   11.9962   14.6324 H   0  0  0  0  0  0
   -2.3870   13.6744   13.2613 H   0  0  0  0  0  0
   -2.5352   15.3012   13.9997 H   0  0  0  0  0  0
  1  2  2  0  0  0
  1  6  1  0  0  0
  1  7  1  0  0  0
  2  3  1  0  0  0
  3  4  2  0  0  0
  4  5  1  0  0  0
  5  6  2  0  0  0
  7  8  2  0  0  0
  7  9  1  0  0  0
  8 10  1  0  0  0
  9 11  1  0  0  0
  9 12  1  0  0  0
M  END
> <PLP_SCORE>
-39.195698

$$$$
header:name
header:software
header:notes
 12 12  0  0  1  0            999 V2000
   -1.9535   16.0456   17.5743 C   0  0  0  0  0  0
   -2.1851   14.9951   16.6943 C   0  0  0  0  0  0
   -1.8580   13.6954   17.0622 C   0  0  0  0  0  0
   -1.2992   13.4462   18.3102 C   0  0  0  0  0  0
   -1.0675   14.4967   19.1901 C   0  0  0  0  0  0
   -1.3947   15.7964   18.8222 C   0  0  0  0  0  0
   -2.3067   17.4484   17.1772 C   0  0  0  0  0  0
   -2.1224   18.3960   17.9887 N   0  0  0  0  0  0
   -2.8627   17.7192   15.8547 N   0  0  0  0  0  0
   -2.3946   19.2952   17.6172 H   0  0  0  0  0  0
   -3.1052   18.6883   15.5840 H   0  0  0  0  0  0
   -3.0144   16.9423   15.1879 H   0  0  0  0  0  0
  1  2  2  0  0  0
  1  6  1  0  0  0
  1  7  1  0  0  0
  2  3  1  0  0  0
  3  4  2  0  0  0
  4  5  1  0  0  0
  5  6  2  0  0  0
  7  8  2  0  0  0
  7  9  1  0  0  0
  8 10  1  0  0  0
  9 11  1  0  0  0
  9 12  1  0  0  0
M  END
> <PLP_SCORE>
-38.244259

$$$$
header:name
header:software
header:notes
 12 12  0  0  1  0            999 V2000
   -1.8380   15.2189   17.4187 C   0  0  0  0  0  0
   -1.0130   14.8569   18.4770 C   0  0  0  0  0  0
   -0.3957   15.8379   19.2440 C   0  0  0  0  0  0
   -0.6034   17.1809   18.9527 C   0  0  0  0  0  0
   -1.4284   17.5429   17.8944 C   0  0  0  0  0  0
   -2.0457   16.5620   17.1275 C   0  0  0  0  0  0
   -2.5043   14.1601   16.5910 C   0  0  0  0  0  0
   -3.2526   14.4916   15.6314 N   0  0  0  0  0  0
   -2.2889   12.7481   16.8931 N   0  0  0  0  0  0
   -3.6474   13.6996   15.1442 H   0  0  0  0  0  0
   -2.7502   12.0202   16.3198 H   0  0  0  0  0  0
   -1.6750   12.4750   17.6803 H   0  0  0  0  0  0
  1  2  2  0  0  0
  1  6  1  0  0  0
  1  7  1  0  0  0
  2  3  1  0  0  0
  3  4  2  0  0  0
  4  5  1  0  0  0
  5  6  2  0  0  0
  7  8  2  0  0  0
  7  9  1  0  0  0
  8 10  1  0  0  0
  9 11  1  0  0  0
  9 12  1  0  0  0
M  END
> <PLP_SCORE>
-38.345337

$$$$
header:name
header:software
header:notes
 12 12  0  0  1  0            999 V2000
   -1.9156   14.3359   17.3918 C   0  0  0  0  0  0
   -2.3220   15.6563   17.5433 C   0  0  0  0  0  0
   -2.0048   16.3524   18.7037 C   0  0  0  0  0  0
   -1.2811   15.7280   19.7127 C   0  0  0  0  0  0
   -0.8747   14.4076   19.5613 C   0  0  0  0  0  0
   -1.1919   13.7115   18.4009 C   0  0  0  0  0  0
   -2.2579   13.5848   16.1394 C   0  0  0  0  0  0
   -2.9806   14.1272   15.2595 N   0  0  0  0  0  0
   -1.7571   12.2285   15.9364 N   0  0  0  0  0  0
   -3.1468   13.5320   14.4604 H   0  0  0  0  0  0
   -1.9951   11.7132   15.0710 H   0  0  0  0  0  0
   -1.1639   11.7824   16.6578 H   0  0  0  0  0  0
  1  2  2  0  0  0
  1  6  1  0  0  0
  1  7  1  0  0  0
  2  3  1  0  0  0
  3  4  2  0  0  0
  4  5  1  0  0  0
  5  6  2  0  0  0
  7  8  2  0  0  0
  7  9  1  0  0  0
  8 10  1  0  0  0
  9 11  1  0  0  0
  9 12  1  0  0  0
M  END
> <PLP_SCORE>
-41.327000

$$$$
header:name
header:software
header:notes
 12 12  0  0  1  0            999 V2000
   -1.7142   14.7722   16.8020 C   0  0  0  0  0  0
   -1.8403   16.1422   16.6046 C   0  0  0  0  0  0
   -1.5035   17.0251   17.6237 C   0  0  0  0  0  0
   -1.0403   16.5381   18.8403 C   0  0  0  0  0  0
   -0.9142   15.1682   19.0376 C   0  0  0  0  0  0
   -1.2510   14.2852   18.0186 C   0  0  0  0  0  0
   -2.0777   13.8194   15.7020 C   0  0  0  0  0  0
   -1.6345   12.6388   15.7219 N   0  0  0  0  0  0
   -2.9425   14.2547   14.6093 N   0  0  0  0  0  0
   -1.9422   12.0861   14.9342 H   0  0  0  0  0  0
   -3.1914   13.5946   13.8521 H   0  0  0  0  0  0
   -3.3068   15.2234   14.5920 H   0  0  0  0  0  0
  1  2  2  0  0  0
  1  6  1  0  0  0
  1  7  1  0  0  0
  2  3  1  0  0  0
  3  4  2  0  0  0
  4  5  1  0  0  0
  5  6  2  0  0  0
  7  8  2  0  0  0
  7  9  1  0  0  0
  8 10  1  0  0  0
  9 11  1  0  0  0
  9 12  1  0  0  0
M  END
> <PLP_SCORE>
-38.658375

$$$$
header:name
header:software
header:notes
 12 12  0  0  1  0            999 V2000
   -1.6945   14.3573   16.9220 C   0  0  0  0  0  0
   -1.3018   13.6511   18.0528 C   0  0  0  0  0  0
   -0.7656   14.3266   19.1426 C   0  0  0  0  0  0
   -0.6221   15.7085   19.1017 C   0  0  0  0  0  0
   -1.0148   16.4147   17.9709 C   0  0  0  0  0  0
   -1.5510   15.7392   16.8811 C   0  0  0  0  0  0
   -2.2733   13.6282   15.7458 C   0  0  0  0  0  0
   -1.8078   12.5044   15.4125 N   0  0  0  0  0  0
   -3.3732   14.2156   14.9864 N   0  0  0  0  0  0
   -2.2716   12.1054   14.6086 H   0  0  0  0  0  0
   -3.7702   13.7097   14.1754 H   0  0  0  0  0  0
   -3.7560   15.1378   15.2590 H   0  0  0  0  0  0
  1  2  2  0  0  0
  1  6  1  0  0  0
  1  7  1  0  0  0
  2  3  1  0  0  0
  3  4  2  0  0  0
  4  5  1  0  0  0
  5  6  2  0  0  0
  7  8  2  0  0  0
  7  9  1  0  0  0
  8 10  1  0  0  0
  9 11  1  0  0  0
  9 12  1  0  0  0
M  END
> <PLP_SCORE>
-46.873264

$$$$
header:name
header:software
header:notes
 12 12  0  0  1  0            999 V2000
   -1.9211   14.6292   16.9529 C   0  0  0  0  0  0
   -2.1984   15.9719   16.7252 C   0  0  0  0  0  0
   -1.8336   16.9264   17.6673 C   0  0  0  0  0  0
   -1.1915   16.5382   18.8372 C   0  0  0  0  0  0
   -0.9141   15.1955   19.0649 C   0  0  0  0  0  0
   -1.2789   14.2410   18.1228 C   0  0  0  0  0  0
   -2.3147   13.5991   15.9361 C   0  0  0  0  0  0
   -2.9942   13.9383   14.9292 N   0  0  0  0  0  0
   -1.9136   12.2060   16.1089 N   0  0  0  0  0  0
   -3.2017   13.1659   14.3120 H   0  0  0  0  0  0
   -2.1869   11.4978   15.4053 H   0  0  0  0  0  0
   -1.3560   11.9265   16.9349 H   0  0  0  0  0  0
  1  2  2  0  0  0
  1  6  1  0  0  0
  1  7  1  0  0  0
  2  3  1  0  0  0
  3  4  2  0  0  0
  4  5  1  0  0  0
  5  6  2  0  0  0
  7  8  2  0  0  0
  7  9  1  0  0  0
  8 10  1  0  0  0
  9 11  1  0  0  0
  9 12  1  0  0  0
M  END
> <PLP_SCORE>
-36.630001

$$$$
