header:name
header:software
header:notes
  4  3  0  0  1  0            999 V2000
  -25.3602  -40.7929    7.3610 C   0  0  0  0  0  0
  -26.4780  -41.1355    6.3758 C   0  0  0  0  0  0
  -26.2276  -42.4182    5.8464 O   0  0  0  0  0  0
  -25.2788  -42.5440    5.7596 H   0  0  0  0  0  0
  1  2  1  0  0  0
  2  3  1  0  0  0
  3  4  1  0  0  0
M  END
> <PLP_SCORE>
-8.732762

$$$$
header:name
header:software
header:notes
  4  3  0  0  1  0            999 V2000
  -18.9289  -39.8526    0.9418 C   0  0  0  0  0  0
  -19.7789  -40.9696    1.5481 C   0  0  0  0  0  0
  -19.7900  -42.0576    0.6512 O   0  0  0  0  0  0
  -19.5343  -41.7492   -0.2223 H   0  0  0  0  0  0
  1  2  1  0  0  0
  2  3  1  0  0  0
  3  4  1  0  0  0
M  END
> <PLP_SCORE>
-10.981487

$$$$
header:name
header:software
header:notes
  4  3  0  0  1  0            999 V2000
  -20.8551  -37.2517   -2.3983 C   0  0  0  0  0  0
  -19.9070  -38.3479   -2.8851 C   0  0  0  0  0  0
  -18.8695  -38.4911   -1.9410 O   0  0  0  0  0  0
  -18.6449  -37.6270   -1.5854 H   0  0  0  0  0  0
  1  2  1  0  0  0
  2  3  1  0  0  0
  3  4  1  0  0  0
M  END
> <PLP_SCORE>
-9.443531

$$$$
header:name
header:software
header:notes
  4  3  0  0  1  0            999 V2000
  -27.0724  -40.4067    5.5180 C   0  0  0  0  0  0
  -26.1331  -40.5539    6.7152 C   0  0  0  0  0  0
  -26.2538  -41.8660    7.2174 O   0  0  0  0  0  0
  -26.9759  -42.3115    6.7660 H   0  0  0  0  0  0
  1  2  1  0  0  0
  2  3  1  0  0  0
  3  4  1  0  0  0
M  END
> <PLP_SCORE>
-7.759796

$$$$
header:name
header:software
header:notes
  4  3  0  0  1  0            999 V2000
  -23.6955  -50.6050   -4.9570 C   0  0  0  0  0  0
  -25.1832  -50.8444   -5.2156 C   0  0  0  0  0  0
  -25.3998  -52.2341   -5.3163 O   0  0  0  0  0  0
  -24.8035  -52.6907   -4.7167 H   0  0  0  0  0  0
  1  2  1  0  0  0
  2  3  1  0  0  0
  3  4  1  0  0  0
M  END
> <PLP_SCORE>
-6.460457

$$$$
