header:name
header:software
header:notes
  4  3  0  0  1  0            999 V2000
  -21.5931  -43.9767    0.2592 C   0  0  0  0  0  0
  -20.2541  -43.2927    0.5362 C   0  0  0  0  0  0
  -19.2611  -44.2872    0.6507 O   0  0  0  0  0  0
  -19.6611  -45.1500    0.5121 H   0  0  0  0  0  0
  1  2  1  0  0  0
  2  3  1  0  0  0
  3  4  1  0  0  0
M  END
> <PLP_SCORE>
-25.803610

$$$$
header:name
header:software
header:notes
  4  3  0  0  1  0            999 V2000
  -20.0749  -42.0242    0.6871 C   0  0  0  0  0  0
  -20.4310  -43.5065    0.5707 C   0  0  0  0  0  0
  -19.2540  -44.2626    0.7474 O   0  0  0  0  0  0
  -18.5160  -43.7961    0.3456 H   0  0  0  0  0  0
  1  2  1  0  0  0
  2  3  1  0  0  0
  3  4  1  0  0  0
M  END
> <PLP_SCORE>
-27.722532

$$$$
header:name
header:software
header:notes
  4  3  0  0  1  0            999 V2000
  -18.4424  -39.7585    0.7228 C   0  0  0  0  0  0
  -19.4546  -40.8174    1.1607 C   0  0  0  0  0  0
  -18.7937  -42.0606    1.2374 O   0  0  0  0  0  0
  -19.3354  -42.6755    1.7394 H   0  0  0  0  0  0
  1  2  1  0  0  0
  2  3  1  0  0  0
  3  4  1  0  0  0
M  END
> <PLP_SCORE>
-24.294138

$$$$
header:name
header:software
header:notes
  4  3  0  0  1  0            999 V2000
  -24.7999  -41.8565    8.1935 C   0  0  0  0  0  0
  -25.5261  -40.5172    8.0655 C   0  0  0  0  0  0
  -25.2702  -39.7589    9.2265 O   0  0  0  0  0  0
  -26.1033  -39.4445    9.5879 H   0  0  0  0  0  0
  1  2  1  0  0  0
  2  3  1  0  0  0
  3  4  1  0  0  0
M  END
> <PLP_SCORE>
-24.161600

$$$$
header:name
header:software
header:notes
  4  3  0  0  1  0            999 V2000
  -21.5194  -43.4069    0.7374 C   0  0  0  0  0  0
  -20.0313  -43.0585    0.6955 C   0  0  0  0  0  0
  -19.2916  -44.2583    0.7354 O   0  0  0  0  0  0
  -18.6832  -44.2294    1.4788 H   0  0  0  0  0  0
  1  2  1  0  0  0
  2  3  1  0  0  0
  3  4  1  0  0  0
M  END
> <PLP_SCORE>
-25.734766

$$$$
header:name
header:software
header:notes
  4  3  0  0  1  0            999 V2000
  -20.0078  -42.3075    1.7873 C   0  0  0  0  0  0
  -20.3951  -43.3438    0.7320 C   0  0  0  0  0  0
  -19.3353  -44.2647    0.6020 O   0  0  0  0  0  0
  -18.9031  -44.3707    1.4538 H   0  0  0  0  0  0
  1  2  1  0  0  0
  2  3  1  0  0  0
  3  4  1  0  0  0
M  END
> <PLP_SCORE>
-25.880619

$$$$
header:name
header:software
header:notes
  4  3  0  0  1  0            999 V2000
  -25.6686  -39.4029    6.8963 C   0  0  0  0  0  0
  -25.3247  -40.2672    8.1096 C   0  0  0  0  0  0
  -25.2558  -39.4339    9.2450 O   0  0  0  0  0  0
  -26.1158  -39.0318    9.3940 H   0  0  0  0  0  0
  1  2  1  0  0  0
  2  3  1  0  0  0
  3  4  1  0  0  0
M  END
> <PLP_SCORE>
-24.311962

$$$$
header:name
header:software
header:notes
  4  3  0  0  1  0            999 V2000
  -20.0145  -42.0643    1.0918 C   0  0  0  0  0  0
  -20.4229  -43.4709    0.6535 C   0  0  0  0  0  0
  -19.2913  -44.3084    0.7328 O   0  0  0  0  0  0
  -18.6698  -43.9399    1.3665 H   0  0  0  0  0  0
  1  2  1  0  0  0
  2  3  1  0  0  0
  3  4  1  0  0  0
M  END
> <PLP_SCORE>
-27.288733

$$$$
header:name
header:software
header:notes
  4  3  0  0  1  0            999 V2000
  -25.3857  -37.1906    6.9439 C   0  0  0  0  0  0
  -25.7732  -35.9278    7.7137 C   0  0  0  0  0  0
  -26.7538  -36.2707    8.6672 O   0  0  0  0  0  0
  -27.2688  -35.4891    8.8853 H   0  0  0  0  0  0
  1  2  1  0  0  0
  2  3  1  0  0  0
  3  4  1  0  0  0
M  END
> <PLP_SCORE>
-23.442673

$$$$
header:name
header:software
header:notes
  4  3  0  0  1  0            999 V2000
  -19.8196  -42.0740    1.3108 C   0  0  0  0  0  0
  -20.3386  -43.3854    0.7205 C   0  0  0  0  0  0
  -19.2826  -44.3198    0.7141 O   0  0  0  0  0  0
  -19.0764  -44.5568   -0.1942 H   0  0  0  0  0  0
  1  2  1  0  0  0
  2  3  1  0  0  0
  3  4  1  0  0  0
M  END
> <PLP_SCORE>
-27.783058

$$$$
header:name
header:software
header:notes
  4  3  0  0  1  0            999 V2000
  -19.9218  -42.0888    1.5060 C   0  0  0  0  0  0
  -20.4112  -43.3033    0.7167 C   0  0  0  0  0  0
  -19.3750  -44.2590    0.6818 O   0  0  0  0  0  0
  -18.5435  -43.8311    0.9031 H   0  0  0  0  0  0
  1  2  1  0  0  0
  2  3  1  0  0  0
  3  4  1  0  0  0
M  END
> <PLP_SCORE>
-28.312748

$$$$
header:name
header:software
header:notes
  4  3  0  0  1  0            999 V2000
  -25.8885  -39.2230    7.0014 C   0  0  0  0  0  0
  -25.2542  -40.2829    7.9024 C   0  0  0  0  0  0
  -25.2858  -39.8141    9.2319 O   0  0  0  0  0  0
  -24.4855  -40.0942    9.6843 H   0  0  0  0  0  0
  1  2  1  0  0  0
  2  3  1  0  0  0
  3  4  1  0  0  0
M  END
> <PLP_SCORE>
-24.588867

$$$$
header:name
header:software
header:notes
  4  3  0  0  1  0            999 V2000
  -20.3989  -42.2626    1.2715 C   0  0  0  0  0  0
  -20.2107  -43.2783    0.1443 C   0  0  0  0  0  0
  -19.3682  -44.3089    0.6094 O   0  0  0  0  0  0
  -18.4533  -44.0704    0.4372 H   0  0  0  0  0  0
  1  2  1  0  0  0
  2  3  1  0  0  0
  3  4  1  0  0  0
M  END
> <PLP_SCORE>
-22.018734

$$$$
header:name
header:software
header:notes
  4  3  0  0  1  0            999 V2000
  -25.3150  -39.7920    6.8687 C   0  0  0  0  0  0
  -25.2838  -40.4528    8.2471 C   0  0  0  0  0  0
  -25.2957  -39.4393    9.2274 O   0  0  0  0  0  0
  -25.8551  -38.7174    8.9281 H   0  0  0  0  0  0
  1  2  1  0  0  0
  2  3  1  0  0  0
  3  4  1  0  0  0
M  END
> <PLP_SCORE>
-24.719616

$$$$
header:name
header:software
header:notes
  4  3  0  0  1  0            999 V2000
  -20.1005  -42.1339    1.2048 C   0  0  0  0  0  0
  -20.4335  -43.5174    0.6457 C   0  0  0  0  0  0
  -19.2568  -44.2943    0.6491 O   0  0  0  0  0  0
  -18.5361  -43.7738    1.0142 H   0  0  0  0  0  0
  1  2  1  0  0  0
  2  3  1  0  0  0
  3  4  1  0  0  0
M  END
> <PLP_SCORE>
-26.981583

$$$$
header:name
header:software
header:notes
  4  3  0  0  1  0            999 V2000
  -20.0489  -42.0506    1.2820 C   0  0  0  0  0  0
  -20.4904  -43.4018    0.7190 C   0  0  0  0  0  0
  -19.3661  -44.2512    0.6663 O   0  0  0  0  0  0
  -19.5009  -44.9110   -0.0193 H   0  0  0  0  0  0
  1  2  1  0  0  0
  2  3  1  0  0  0
  3  4  1  0  0  0
M  END
> <PLP_SCORE>
-27.281216

$$$$
header:name
header:software
header:notes
  4  3  0  0  1  0            999 V2000
  -25.2063  -34.7884    7.6982 C   0  0  0  0  0  0
  -26.0353  -36.0595    7.5122 C   0  0  0  0  0  0
  -26.7590  -36.2969    8.6988 O   0  0  0  0  0  0
  -27.6826  -36.0734    8.5552 H   0  0  0  0  0  0
  1  2  1  0  0  0
  2  3  1  0  0  0
  3  4  1  0  0  0
M  END
> <PLP_SCORE>
-24.386145

$$$$
header:name
header:software
header:notes
  4  3  0  0  1  0            999 V2000
  -21.3214  -43.1790    0.2484 C   0  0  0  0  0  0
  -19.8050  -43.0590    0.4022 C   0  0  0  0  0  0
  -19.2898  -44.3275    0.7395 O   0  0  0  0  0  0
  -18.4232  -44.4332    0.3376 H   0  0  0  0  0  0
  1  2  1  0  0  0
  2  3  1  0  0  0
  3  4  1  0  0  0
M  END
> <PLP_SCORE>
-25.046421

$$$$
header:name
header:software
header:notes
  4  3  0  0  1  0            999 V2000
  -25.2985  -34.9953    7.3445 C   0  0  0  0  0  0
  -26.1829  -36.2373    7.4570 C   0  0  0  0  0  0
  -26.7721  -36.2500    8.7380 O   0  0  0  0  0  0
  -27.6811  -35.9456    8.6702 H   0  0  0  0  0  0
  1  2  1  0  0  0
  2  3  1  0  0  0
  3  4  1  0  0  0
M  END
> <PLP_SCORE>
-24.797543

$$$$
header:name
header:software
header:notes
  4  3  0  0  1  0            999 V2000
  -25.6553  -41.2693    7.6099 C   0  0  0  0  0  0
  -25.2715  -39.7935    7.7208 C   0  0  0  0  0  0
  -25.2560  -39.4386    9.0854 O   0  0  0  0  0  0
  -25.5152  -38.5176    9.1749 H   0  0  0  0  0  0
  1  2  1  0  0  0
  2  3  1  0  0  0
  3  4  1  0  0  0
M  END
> <PLP_SCORE>
-23.157127

$$$$
header:name
header:software
header:notes
  4  3  0  0  1  0            999 V2000
  -24.8500  -41.5043    7.9129 C   0  0  0  0  0  0
  -25.3383  -40.0701    8.1187 C   0  0  0  0  0  0
  -25.2571  -39.7648    9.4929 O   0  0  0  0  0  0
  -26.1451  -39.6961    9.8539 H   0  0  0  0  0  0
  1  2  1  0  0  0
  2  3  1  0  0  0
  3  4  1  0  0  0
M  END
> <PLP_SCORE>
-23.793745

$$$$
header:name
header:software
header:notes
  4  3  0  0  1  0            999 V2000
  -26.3268  -37.6212    6.6992 C   0  0  0  0  0  0
  -26.7562  -36.2513    7.2251 C   0  0  0  0  0  0
  -26.7903  -36.3056    8.6337 O   0  0  0  0  0  0
  -27.1590  -37.1496    8.9081 H   0  0  0  0  0  0
  1  2  1  0  0  0
  2  3  1  0  0  0
  3  4  1  0  0  0
M  END
> <PLP_SCORE>
-23.540430

$$$$
header:name
header:software
header:notes
  4  3  0  0  1  0            999 V2000
  -25.7741  -41.4250    7.4309 C   0  0  0  0  0  0
  -25.2604  -40.0161    7.7284 C   0  0  0  0  0  0
  -25.2603  -39.8278    9.1259 O   0  0  0  0  0  0
  -24.5967  -40.3995    9.5213 H   0  0  0  0  0  0
  1  2  1  0  0  0
  2  3  1  0  0  0
  3  4  1  0  0  0
M  END
> <PLP_SCORE>
-23.449144

$$$$
header:name
header:software
header:notes
  4  3  0  0  1  0            999 V2000
  -19.7580  -42.2642    1.7275 C   0  0  0  0  0  0
  -20.2693  -43.2207    0.6499 C   0  0  0  0  0  0
  -19.3617  -44.2943    0.5402 O   0  0  0  0  0  0
  -18.4799  -43.9865    0.7668 H   0  0  0  0  0  0
  1  2  1  0  0  0
  2  3  1  0  0  0
  3  4  1  0  0  0
M  END
> <PLP_SCORE>
-24.445349

$$$$
header:name
header:software
header:notes
  4  3  0  0  1  0            999 V2000
  -21.3479  -43.1862   -0.2644 C   0  0  0  0  0  0
  -20.1950  -43.1110    0.7369 C   0  0  0  0  0  0
  -19.5244  -44.3514    0.7380 O   0  0  0  0  0  0
  -19.9649  -44.9488    0.1275 H   0  0  0  0  0  0
  1  2  1  0  0  0
  2  3  1  0  0  0
  3  4  1  0  0  0
M  END
> <PLP_SCORE>
-22.241659

$$$$
header:name
header:software
header:notes
  4  3  0  0  1  0            999 V2000
  -26.2703  -35.5823    6.4999 C   0  0  0  0  0  0
  -26.0928  -36.6971    7.5311 C   0  0  0  0  0  0
  -26.7563  -36.3176    8.7160 O   0  0  0  0  0  0
  -27.4331  -36.9684    8.9210 H   0  0  0  0  0  0
  1  2  1  0  0  0
  2  3  1  0  0  0
  3  4  1  0  0  0
M  END
> <PLP_SCORE>
-21.725208

$$$$
header:name
header:software
header:notes
  4  3  0  0  1  0            999 V2000
  -25.5092  -35.0640    7.1845 C   0  0  0  0  0  0
  -26.3447  -36.3254    7.4048 C   0  0  0  0  0  0
  -26.8169  -36.3205    8.7335 O   0  0  0  0  0  0
  -26.5998  -35.4784    9.1424 H   0  0  0  0  0  0
  1  2  1  0  0  0
  2  3  1  0  0  0
  3  4  1  0  0  0
M  END
> <PLP_SCORE>
-24.234940

$$$$
header:name
header:software
header:notes
  4  3  0  0  1  0            999 V2000
  -19.8955  -42.0221    1.3534 C   0  0  0  0  0  0
  -20.3710  -43.2582    0.5895 C   0  0  0  0  0  0
  -19.3739  -44.2508    0.6835 O   0  0  0  0  0  0
  -19.6383  -44.9027    1.3381 H   0  0  0  0  0  0
  1  2  1  0  0  0
  2  3  1  0  0  0
  3  4  1  0  0  0
M  END
> <PLP_SCORE>
-25.766087

$$$$
header:name
header:software
header:notes
  4  3  0  0  1  0            999 V2000
  -24.7677  -41.6079    8.1512 C   0  0  0  0  0  0
  -25.4671  -40.2531    8.0379 C   0  0  0  0  0  0
  -25.2524  -39.5395    9.2350 O   0  0  0  0  0  0
  -25.9866  -39.7001    9.8340 H   0  0  0  0  0  0
  1  2  1  0  0  0
  2  3  1  0  0  0
  3  4  1  0  0  0
M  END
> <PLP_SCORE>
-24.702440

$$$$
header:name
header:software
header:notes
  4  3  0  0  1  0            999 V2000
  -20.2468  -42.3127    1.5978 C   0  0  0  0  0  0
  -20.4246  -43.4120    0.5503 C   0  0  0  0  0  0
  -19.3115  -44.2750    0.6168 O   0  0  0  0  0  0
  -18.5410  -43.7750    0.8996 H   0  0  0  0  0  0
  1  2  1  0  0  0
  2  3  1  0  0  0
  3  4  1  0  0  0
M  END
> <PLP_SCORE>
-25.385359

$$$$
header:name
header:software
header:notes
  4  3  0  0  1  0            999 V2000
  -25.2930  -41.2174    7.1931 C   0  0  0  0  0  0
  -25.2992  -39.7792    7.7118 C   0  0  0  0  0  0
  -25.2525  -39.8136    9.1207 O   0  0  0  0  0  0
  -25.8914  -39.1881    9.4729 H   0  0  0  0  0  0
  1  2  1  0  0  0
  2  3  1  0  0  0
  3  4  1  0  0  0
M  END
> <PLP_SCORE>
-24.148857

$$$$
header:name
header:software
header:notes
  4  3  0  0  1  0            999 V2000
  -20.2749  -42.1029    1.0846 C   0  0  0  0  0  0
  -20.5424  -43.5342    0.6183 C   0  0  0  0  0  0
  -19.3324  -44.2557    0.6781 O   0  0  0  0  0  0
  -19.1742  -44.6775   -0.1708 H   0  0  0  0  0  0
  1  2  1  0  0  0
  2  3  1  0  0  0
  3  4  1  0  0  0
M  END
> <PLP_SCORE>
-24.596586

$$$$
header:name
header:software
header:notes
  4  3  0  0  1  0            999 V2000
  -21.2489  -42.9140    0.2238 C   0  0  0  0  0  0
  -19.7568  -42.9538    0.5544 C   0  0  0  0  0  0
  -19.3702  -44.3011    0.7079 O   0  0  0  0  0  0
  -20.1030  -44.8701    0.4572 H   0  0  0  0  0  0
  1  2  1  0  0  0
  2  3  1  0  0  0
  3  4  1  0  0  0
M  END
> <PLP_SCORE>
-24.580338

$$$$
header:name
header:software
header:notes
  4  3  0  0  1  0            999 V2000
  -20.9769  -42.6865    0.1398 C   0  0  0  0  0  0
  -20.1757  -43.3540    1.2578 C   0  0  0  0  0  0
  -19.2599  -44.2532    0.6739 O   0  0  0  0  0  0
  -19.6824  -44.6980   -0.0659 H   0  0  0  0  0  0
  1  2  1  0  0  0
  2  3  1  0  0  0
  3  4  1  0  0  0
M  END
> <PLP_SCORE>
-24.422926

$$$$
header:name
header:software
header:notes
  4  3  0  0  1  0            999 V2000
  -21.7446  -43.9185    0.2458 C   0  0  0  0  0  0
  -20.4004  -43.2659    0.5693 C   0  0  0  0  0  0
  -19.4044  -44.2637    0.5487 O   0  0  0  0  0  0
  -19.0805  -44.3678   -0.3501 H   0  0  0  0  0  0
  1  2  1  0  0  0
  2  3  1  0  0  0
  3  4  1  0  0  0
M  END
> <PLP_SCORE>
-25.762760

$$$$
header:name
header:software
header:notes
  4  3  0  0  1  0            999 V2000
  -20.6597  -42.4261    1.3417 C   0  0  0  0  0  0
  -20.4857  -43.6175    0.3995 C   0  0  0  0  0  0
  -19.2867  -44.2793    0.7350 O   0  0  0  0  0  0
  -18.9185  -44.6848   -0.0547 H   0  0  0  0  0  0
  1  2  1  0  0  0
  2  3  1  0  0  0
  3  4  1  0  0  0
M  END
> <PLP_SCORE>
-25.173492

$$$$
header:name
header:software
header:notes
  4  3  0  0  1  0            999 V2000
  -24.3880  -41.7710    8.2121 C   0  0  0  0  0  0
  -25.2560  -40.5342    7.9791 C   0  0  0  0  0  0
  -25.2668  -39.7682    9.1630 O   0  0  0  0  0  0
  -24.3662  -39.6697    9.4834 H   0  0  0  0  0  0
  1  2  1  0  0  0
  2  3  1  0  0  0
  3  4  1  0  0  0
M  END
> <PLP_SCORE>
-24.587467

$$$$
header:name
header:software
header:notes
  4  3  0  0  1  0            999 V2000
  -21.4448  -43.3848    0.1736 C   0  0  0  0  0  0
  -20.0447  -43.0765    0.7048 C   0  0  0  0  0  0
  -19.2748  -44.2562    0.6423 O   0  0  0  0  0  0
  -18.3961  -44.0783    0.9885 H   0  0  0  0  0  0
  1  2  1  0  0  0
  2  3  1  0  0  0
  3  4  1  0  0  0
M  END
> <PLP_SCORE>
-29.045021

$$$$
header:name
header:software
header:notes
  4  3  0  0  1  0            999 V2000
  -20.2098  -42.2863    1.7456 C   0  0  0  0  0  0
  -20.4337  -43.3675    0.6881 C   0  0  0  0  0  0
  -19.3483  -44.2665    0.7334 O   0  0  0  0  0  0
  -19.6808  -45.1660    0.6707 H   0  0  0  0  0  0
  1  2  1  0  0  0
  2  3  1  0  0  0
  3  4  1  0  0  0
M  END
> <PLP_SCORE>
-27.773342

$$$$
header:name
header:software
header:notes
  4  3  0  0  1  0            999 V2000
  -18.4448  -39.7624    0.8137 C   0  0  0  0  0  0
  -19.4470  -40.8473    1.2089 C   0  0  0  0  0  0
  -18.7766  -42.0877    1.2271 O   0  0  0  0  0  0
  -18.3234  -42.1891    2.0684 H   0  0  0  0  0  0
  1  2  1  0  0  0
  2  3  1  0  0  0
  3  4  1  0  0  0
M  END
> <PLP_SCORE>
-22.871521

$$$$
header:name
header:software
header:notes
  4  3  0  0  1  0            999 V2000
  -25.3839  -35.0874    7.2425 C   0  0  0  0  0  0
  -26.2842  -36.3083    7.4331 C   0  0  0  0  0  0
  -26.7902  -36.2876    8.7491 O   0  0  0  0  0  0
  -27.4823  -36.9493    8.8315 H   0  0  0  0  0  0
  1  2  1  0  0  0
  2  3  1  0  0  0
  3  4  1  0  0  0
M  END
> <PLP_SCORE>
-24.345694

$$$$
header:name
header:software
header:notes
  4  3  0  0  1  0            999 V2000
  -19.4742  -41.8898    0.9939 C   0  0  0  0  0  0
  -20.2054  -43.1867    0.6463 C   0  0  0  0  0  0
  -19.2862  -44.2527    0.7307 O   0  0  0  0  0  0
  -18.5635  -44.0955    0.1171 H   0  0  0  0  0  0
  1  2  1  0  0  0
  2  3  1  0  0  0
  3  4  1  0  0  0
M  END
> <PLP_SCORE>
-26.492228

$$$$
header:name
header:software
header:notes
  4  3  0  0  1  0            999 V2000
  -20.7582  -42.3850    0.3922 C   0  0  0  0  0  0
  -20.5871  -43.8919    0.1987 C   0  0  0  0  0  0
  -19.3127  -44.2605    0.6766 O   0  0  0  0  0  0
  -19.1981  -45.2088    0.5703 H   0  0  0  0  0  0
  1  2  1  0  0  0
  2  3  1  0  0  0
  3  4  1  0  0  0
M  END
> <PLP_SCORE>
-25.851547

$$$$
header:name
header:software
header:notes
  4  3  0  0  1  0            999 V2000
  -21.5115  -43.7195    0.2440 C   0  0  0  0  0  0
  -20.0527  -43.2623    0.2287 C   0  0  0  0  0  0
  -19.2510  -44.3142    0.7178 O   0  0  0  0  0  0
  -18.3271  -44.0531    0.6747 H   0  0  0  0  0  0
  1  2  1  0  0  0
  2  3  1  0  0  0
  3  4  1  0  0  0
M  END
> <PLP_SCORE>
-28.653553

$$$$
header:name
header:software
header:notes
  4  3  0  0  1  0            999 V2000
  -21.5336  -43.3885    0.2356 C   0  0  0  0  0  0
  -20.0917  -43.0910    0.6478 C   0  0  0  0  0  0
  -19.3912  -44.3120    0.7306 O   0  0  0  0  0  0
  -20.0216  -45.0326    0.8133 H   0  0  0  0  0  0
  1  2  1  0  0  0
  2  3  1  0  0  0
  3  4  1  0  0  0
M  END
> <PLP_SCORE>
-25.938602

$$$$
header:name
header:software
header:notes
  4  3  0  0  1  0            999 V2000
  -25.1289  -35.5784    7.0514 C   0  0  0  0  0  0
  -25.9851  -36.7305    7.5778 C   0  0  0  0  0  0
  -26.7598  -36.2537    8.6552 O   0  0  0  0  0  0
  -26.8604  -36.9539    9.3057 H   0  0  0  0  0  0
  1  2  1  0  0  0
  2  3  1  0  0  0
  3  4  1  0  0  0
M  END
> <PLP_SCORE>
-22.713158

$$$$
header:name
header:software
header:notes
  4  3  0  0  1  0            999 V2000
  -25.2711  -34.9753    7.3942 C   0  0  0  0  0  0
  -26.3080  -36.0988    7.3971 C   0  0  0  0  0  0
  -26.7678  -36.2772    8.7181 O   0  0  0  0  0  0
  -27.7250  -36.3623    8.7103 H   0  0  0  0  0  0
  1  2  1  0  0  0
  2  3  1  0  0  0
  3  4  1  0  0  0
M  END
> <PLP_SCORE>
-24.807123

$$$$
header:name
header:software
header:notes
  4  3  0  0  1  0            999 V2000
  -25.0899  -34.9229    7.7396 C   0  0  0  0  0  0
  -26.0596  -36.0856    7.5267 C   0  0  0  0  0  0
  -26.8054  -36.2660    8.7098 O   0  0  0  0  0  0
  -26.2582  -36.0366    9.4658 H   0  0  0  0  0  0
  1  2  1  0  0  0
  2  3  1  0  0  0
  3  4  1  0  0  0
M  END
> <PLP_SCORE>
-24.181511

$$$$
header:name
header:software
header:notes
  4  3  0  0  1  0            999 V2000
  -26.2802  -39.9102    7.0765 C   0  0  0  0  0  0
  -25.2777  -40.5437    8.0415 C   0  0  0  0  0  0
  -25.2765  -39.7958    9.2369 O   0  0  0  0  0  0
  -26.1208  -39.9100    9.6814 H   0  0  0  0  0  0
  1  2  1  0  0  0
  2  3  1  0  0  0
  3  4  1  0  0  0
M  END
> <PLP_SCORE>
-24.960480

$$$$
header:name
header:software
header:notes
  4  3  0  0  1  0            999 V2000
  -25.2892  -35.0897    7.2798 C   0  0  0  0  0  0
  -26.2342  -36.2877    7.3758 C   0  0  0  0  0  0
  -26.7916  -36.3128    8.6708 O   0  0  0  0  0  0
  -27.4031  -35.5775    8.7655 H   0  0  0  0  0  0
  1  2  1  0  0  0
  2  3  1  0  0  0
  3  4  1  0  0  0
M  END
> <PLP_SCORE>
-23.467308

$$$$
header:name
header:software
header:notes
  4  3  0  0  1  0            999 V2000
  -25.0545  -35.3674    7.2794 C   0  0  0  0  0  0
  -26.2556  -36.3113    7.3421 C   0  0  0  0  0  0
  -26.7525  -36.3129    8.6617 O   0  0  0  0  0  0
  -27.4929  -35.7031    8.7208 H   0  0  0  0  0  0
  1  2  1  0  0  0
  2  3  1  0  0  0
  3  4  1  0  0  0
M  END
> <PLP_SCORE>
-25.353720

$$$$
header:name
header:software
header:notes
  4  3  0  0  1  0            999 V2000
  -20.1250  -42.3797    1.9022 C   0  0  0  0  0  0
  -20.3473  -43.3597    0.7499 C   0  0  0  0  0  0
  -19.2584  -44.2546    0.7098 O   0  0  0  0  0  0
  -19.2993  -44.7652   -0.1033 H   0  0  0  0  0  0
  1  2  1  0  0  0
  2  3  1  0  0  0
  3  4  1  0  0  0
M  END
> <PLP_SCORE>
-26.896402

$$$$
header:name
header:software
header:notes
  4  3  0  0  1  0            999 V2000
  -25.7070  -41.3740    7.5323 C   0  0  0  0  0  0
  -25.2853  -39.9344    7.8277 C   0  0  0  0  0  0
  -25.2569  -39.7567    9.2263 O   0  0  0  0  0  0
  -25.6737  -40.5124    9.6489 H   0  0  0  0  0  0
  1  2  1  0  0  0
  2  3  1  0  0  0
  3  4  1  0  0  0
M  END
> <PLP_SCORE>
-24.321386

$$$$
header:name
header:software
header:notes
  4  3  0  0  1  0            999 V2000
  -24.9214  -41.8475    8.0997 C   0  0  0  0  0  0
  -25.3108  -40.3767    7.9496 C   0  0  0  0  0  0
  -25.2514  -39.7682    9.2202 O   0  0  0  0  0  0
  -25.9690  -40.1034    9.7645 H   0  0  0  0  0  0
  1  2  1  0  0  0
  2  3  1  0  0  0
  3  4  1  0  0  0
M  END
> <PLP_SCORE>
-26.036650

$$$$
header:name
header:software
header:notes
  4  3  0  0  1  0            999 V2000
  -21.4895  -43.5723    0.1192 C   0  0  0  0  0  0
  -20.1712  -43.2058    0.8013 C   0  0  0  0  0  0
  -19.2512  -44.2521    0.5839 O   0  0  0  0  0  0
  -19.3323  -44.5602   -0.3228 H   0  0  0  0  0  0
  1  2  1  0  0  0
  2  3  1  0  0  0
  3  4  1  0  0  0
M  END
> <PLP_SCORE>
-25.138897

$$$$
header:name
header:software
header:notes
  4  3  0  0  1  0            999 V2000
  -25.8310  -39.9772    6.8986 C   0  0  0  0  0  0
  -25.2693  -40.7180    8.1124 C   0  0  0  0  0  0
  -25.2705  -39.8358    9.2125 O   0  0  0  0  0  0
  -25.7295  -40.2497    9.9484 H   0  0  0  0  0  0
  1  2  1  0  0  0
  2  3  1  0  0  0
  3  4  1  0  0  0
M  END
> <PLP_SCORE>
-24.883234

$$$$
header:name
header:software
header:notes
  4  3  0  0  1  0            999 V2000
  -19.6279  -41.9966    1.2164 C   0  0  0  0  0  0
  -20.3226  -43.2643    0.7186 C   0  0  0  0  0  0
  -19.3921  -44.3233    0.7488 O   0  0  0  0  0  0
  -19.6719  -45.0068    0.1339 H   0  0  0  0  0  0
  1  2  1  0  0  0
  2  3  1  0  0  0
  3  4  1  0  0  0
M  END
> <PLP_SCORE>
-24.829826

$$$$
header:name
header:software
header:notes
  4  3  0  0  1  0            999 V2000
  -25.0338  -35.6315    7.2280 C   0  0  0  0  0  0
  -26.3356  -36.4186    7.3804 C   0  0  0  0  0  0
  -26.7991  -36.2613    8.7028 O   0  0  0  0  0  0
  -26.4942  -35.4169    9.0457 H   0  0  0  0  0  0
  1  2  1  0  0  0
  2  3  1  0  0  0
  3  4  1  0  0  0
M  END
> <PLP_SCORE>
-24.565378

$$$$
header:name
header:software
header:notes
  4  3  0  0  1  0            999 V2000
  -26.2623  -40.1813    7.1488 C   0  0  0  0  0  0
  -25.2710  -40.6913    8.1951 C   0  0  0  0  0  0
  -25.2567  -39.7842    9.2746 O   0  0  0  0  0  0
  -24.9204  -38.9369    8.9703 H   0  0  0  0  0  0
  1  2  1  0  0  0
  2  3  1  0  0  0
  3  4  1  0  0  0
M  END
> <PLP_SCORE>
-24.045115

$$$$
header:name
header:software
header:notes
  4  3  0  0  1  0            999 V2000
  -20.4543  -42.4427    1.6325 C   0  0  0  0  0  0
  -20.5295  -43.6501    0.6977 C   0  0  0  0  0  0
  -19.2604  -44.2635    0.6593 O   0  0  0  0  0  0
  -19.3718  -45.2174    0.6263 H   0  0  0  0  0  0
  1  2  1  0  0  0
  2  3  1  0  0  0
  3  4  1  0  0  0
M  END
> <PLP_SCORE>
-24.362173

$$$$
header:name
header:software
header:notes
  4  3  0  0  1  0            999 V2000
  -21.5661  -43.8945    0.1616 C   0  0  0  0  0  0
  -20.2567  -43.2819    0.6594 C   0  0  0  0  0  0
  -19.2731  -44.2919    0.6830 O   0  0  0  0  0  0
  -19.6599  -45.1011    1.0281 H   0  0  0  0  0  0
  1  2  1  0  0  0
  2  3  1  0  0  0
  3  4  1  0  0  0
M  END
> <PLP_SCORE>
-27.028345

$$$$
header:name
header:software
header:notes
  4  3  0  0  1  0            999 V2000
  -25.3009  -35.1738    7.2597 C   0  0  0  0  0  0
  -26.3555  -36.2713    7.4049 C   0  0  0  0  0  0
  -26.8012  -36.2866    8.7426 O   0  0  0  0  0  0
  -26.1613  -35.8280    9.2937 H   0  0  0  0  0  0
  1  2  1  0  0  0
  2  3  1  0  0  0
  3  4  1  0  0  0
M  END
> <PLP_SCORE>
-24.839676

$$$$
header:name
header:software
header:notes
  4  3  0  0  1  0            999 V2000
  -20.1880  -42.1635    1.4107 C   0  0  0  0  0  0
  -20.4796  -43.4987    0.7254 C   0  0  0  0  0  0
  -19.3045  -44.2777    0.7494 O   0  0  0  0  0  0
  -19.3083  -44.8778   -0.0012 H   0  0  0  0  0  0
  1  2  1  0  0  0
  2  3  1  0  0  0
  3  4  1  0  0  0
M  END
> <PLP_SCORE>
-28.156294

$$$$
header:name
header:software
header:notes
  4  3  0  0  1  0            999 V2000
  -21.4207  -43.4229    0.0445 C   0  0  0  0  0  0
  -20.0751  -43.0926    0.6908 C   0  0  0  0  0  0
  -19.3073  -44.2739    0.7495 O   0  0  0  0  0  0
  -19.3557  -44.7241   -0.0982 H   0  0  0  0  0  0
  1  2  1  0  0  0
  2  3  1  0  0  0
  3  4  1  0  0  0
M  END
> <PLP_SCORE>
-25.897303

$$$$
header:name
header:software
header:notes
  4  3  0  0  1  0            999 V2000
  -25.8603  -40.7800    7.3826 C   0  0  0  0  0  0
  -25.2880  -39.4099    7.7469 C   0  0  0  0  0  0
  -25.2638  -39.2965    9.1522 O   0  0  0  0  0  0
  -24.7469  -38.5244    9.3977 H   0  0  0  0  0  0
  1  2  1  0  0  0
  2  3  1  0  0  0
  3  4  1  0  0  0
M  END
> <PLP_SCORE>
-23.765722

$$$$
header:name
header:software
header:notes
  4  3  0  0  1  0            999 V2000
  -19.7220  -42.0462    1.3246 C   0  0  0  0  0  0
  -20.2844  -43.3164    0.6860 C   0  0  0  0  0  0
  -19.2560  -44.2794    0.6293 O   0  0  0  0  0  0
  -18.4212  -43.8636    0.8610 H   0  0  0  0  0  0
  1  2  1  0  0  0
  2  3  1  0  0  0
  3  4  1  0  0  0
M  END
> <PLP_SCORE>
-27.308819

$$$$
header:name
header:software
header:notes
  4  3  0  0  1  0            999 V2000
  -19.7725  -42.1240    1.5918 C   0  0  0  0  0  0
  -20.3629  -43.4404    1.0857 C   0  0  0  0  0  0
  -19.3009  -44.3012    0.7402 O   0  0  0  0  0  0
  -19.6565  -45.0862    0.3148 H   0  0  0  0  0  0
  1  2  1  0  0  0
  2  3  1  0  0  0
  3  4  1  0  0  0
M  END
> <PLP_SCORE>
-25.120670

$$$$
header:name
header:software
header:notes
  4  3  0  0  1  0            999 V2000
  -25.7658  -39.6933    6.9260 C   0  0  0  0  0  0
  -25.2777  -40.3491    8.2179 C   0  0  0  0  0  0
  -25.2781  -39.3765    9.2389 O   0  0  0  0  0  0
  -26.1855  -39.1799    9.4870 H   0  0  0  0  0  0
  1  2  1  0  0  0
  2  3  1  0  0  0
  3  4  1  0  0  0
M  END
> <PLP_SCORE>
-26.813562

$$$$
header:name
header:software
header:notes
  4  3  0  0  1  0            999 V2000
  -25.0238  -35.3542    7.2790 C   0  0  0  0  0  0
  -26.2668  -36.2434    7.3219 C   0  0  0  0  0  0
  -26.7627  -36.2523    8.6418 O   0  0  0  0  0  0
  -26.9846  -35.3540    8.9017 H   0  0  0  0  0  0
  1  2  1  0  0  0
  2  3  1  0  0  0
  3  4  1  0  0  0
M  END
> <PLP_SCORE>
-24.463434

$$$$
header:name
header:software
header:notes
  4  3  0  0  1  0            999 V2000
  -24.8615  -35.7285    7.5674 C   0  0  0  0  0  0
  -26.2588  -36.3376    7.4494 C   0  0  0  0  0  0
  -26.8643  -36.3134    8.7227 O   0  0  0  0  0  0
  -26.2625  -35.9045    9.3505 H   0  0  0  0  0  0
  1  2  1  0  0  0
  2  3  1  0  0  0
  3  4  1  0  0  0
M  END
> <PLP_SCORE>
-24.419615

$$$$
header:name
header:software
header:notes
  4  3  0  0  1  0            999 V2000
  -21.3825  -43.2776    0.1804 C   0  0  0  0  0  0
  -20.0116  -43.1008    0.8338 C   0  0  0  0  0  0
  -19.2709  -44.2853    0.6425 O   0  0  0  0  0  0
  -19.7032  -45.0065    1.1079 H   0  0  0  0  0  0
  1  2  1  0  0  0
  2  3  1  0  0  0
  3  4  1  0  0  0
M  END
> <PLP_SCORE>
-25.595869

$$$$
header:name
header:software
header:notes
  4  3  0  0  1  0            999 V2000
  -25.7281  -40.0925    6.8486 C   0  0  0  0  0  0
  -25.2774  -40.7548    8.1508 C   0  0  0  0  0  0
  -25.2578  -39.7755    9.1651 O   0  0  0  0  0  0
  -25.2196  -38.9041    8.7617 H   0  0  0  0  0  0
  1  2  1  0  0  0
  2  3  1  0  0  0
  3  4  1  0  0  0
M  END
> <PLP_SCORE>
-24.957453

$$$$
header:name
header:software
header:notes
  4  3  0  0  1  0            999 V2000
  -21.5922  -43.4232    0.1427 C   0  0  0  0  0  0
  -20.2203  -43.1157    0.7434 C   0  0  0  0  0  0
  -19.4365  -44.2865    0.6865 O   0  0  0  0  0  0
  -18.7798  -44.1931   -0.0090 H   0  0  0  0  0  0
  1  2  1  0  0  0
  2  3  1  0  0  0
  3  4  1  0  0  0
M  END
> <PLP_SCORE>
-26.198969

$$$$
header:name
header:software
header:notes
  4  3  0  0  1  0            999 V2000
  -25.8313  -40.1920    6.9088 C   0  0  0  0  0  0
  -25.2737  -40.7519    8.2176 C   0  0  0  0  0  0
  -25.2811  -39.7227    9.1815 O   0  0  0  0  0  0
  -25.1263  -38.8806    8.7451 H   0  0  0  0  0  0
  1  2  1  0  0  0
  2  3  1  0  0  0
  3  4  1  0  0  0
M  END
> <PLP_SCORE>
-24.212395

$$$$
header:name
header:software
header:notes
  4  3  0  0  1  0            999 V2000
  -19.8971  -42.1369    1.5319 C   0  0  0  0  0  0
  -20.3414  -43.3506    0.7152 C   0  0  0  0  0  0
  -19.2708  -44.2667    0.6603 O   0  0  0  0  0  0
  -18.5223  -43.8515    0.2233 H   0  0  0  0  0  0
  1  2  1  0  0  0
  2  3  1  0  0  0
  3  4  1  0  0  0
M  END
> <PLP_SCORE>
-28.487953

$$$$
header:name
header:software
header:notes
  4  3  0  0  1  0            999 V2000
  -25.0861  -41.6748    7.6794 C   0  0  0  0  0  0
  -25.2812  -40.1674    7.8441 C   0  0  0  0  0  0
  -25.2544  -39.8626    9.2206 O   0  0  0  0  0  0
  -25.5248  -38.9491    9.3468 H   0  0  0  0  0  0
  1  2  1  0  0  0
  2  3  1  0  0  0
  3  4  1  0  0  0
M  END
> <PLP_SCORE>
-23.763426

$$$$
header:name
header:software
header:notes
  4  3  0  0  1  0            999 V2000
  -24.8668  -35.2112    7.7347 C   0  0  0  0  0  0
  -25.8083  -36.4135    7.6619 C   0  0  0  0  0  0
  -26.7732  -36.2862    8.6823 O   0  0  0  0  0  0
  -26.8158  -35.3682    8.9635 H   0  0  0  0  0  0
  1  2  1  0  0  0
  2  3  1  0  0  0
  3  4  1  0  0  0
M  END
> <PLP_SCORE>
-23.730608

$$$$
header:name
header:software
header:notes
  4  3  0  0  1  0            999 V2000
  -20.4243  -42.2189    0.9377 C   0  0  0  0  0  0
  -20.5551  -43.7275    0.7271 C   0  0  0  0  0  0
  -19.2627  -44.2914    0.7297 O   0  0  0  0  0  0
  -19.0067  -44.4977   -0.1733 H   0  0  0  0  0  0
  1  2  1  0  0  0
  2  3  1  0  0  0
  3  4  1  0  0  0
M  END
> <PLP_SCORE>
-27.303370

$$$$
header:name
header:software
header:notes
  4  3  0  0  1  0            999 V2000
  -20.4029  -42.1243    0.8238 C   0  0  0  0  0  0
  -20.5877  -43.6257    0.6020 C   0  0  0  0  0  0
  -19.3328  -44.2540    0.7388 O   0  0  0  0  0  0
  -19.4270  -45.1915    0.5495 H   0  0  0  0  0  0
  1  2  1  0  0  0
  2  3  1  0  0  0
  3  4  1  0  0  0
M  END
> <PLP_SCORE>
-26.235697

$$$$
header:name
header:software
header:notes
  4  3  0  0  1  0            999 V2000
  -21.6370  -43.9216    0.2126 C   0  0  0  0  0  0
  -20.2939  -43.2628    0.5283 C   0  0  0  0  0  0
  -19.3331  -44.2777    0.7157 O   0  0  0  0  0  0
  -19.7625  -45.0547    1.0838 H   0  0  0  0  0  0
  1  2  1  0  0  0
  2  3  1  0  0  0
  3  4  1  0  0  0
M  END
> <PLP_SCORE>
-26.128038

$$$$
header:name
header:software
header:notes
  4  3  0  0  1  0            999 V2000
  -19.7795  -42.0392    1.2416 C   0  0  0  0  0  0
  -20.3187  -43.3530    0.6752 C   0  0  0  0  0  0
  -19.2504  -44.2683    0.5792 O   0  0  0  0  0  0
  -19.3074  -44.7330   -0.2601 H   0  0  0  0  0  0
  1  2  1  0  0  0
  2  3  1  0  0  0
  3  4  1  0  0  0
M  END
> <PLP_SCORE>
-28.038422

$$$$
header:name
header:software
header:notes
  4  3  0  0  1  0            999 V2000
  -24.9234  -35.3804    7.5068 C   0  0  0  0  0  0
  -26.3616  -35.8929    7.4263 C   0  0  0  0  0  0
  -26.7711  -36.2761    8.7200 O   0  0  0  0  0  0
  -27.0728  -37.1882    8.6983 H   0  0  0  0  0  0
  1  2  1  0  0  0
  2  3  1  0  0  0
  3  4  1  0  0  0
M  END
> <PLP_SCORE>
-22.927006

$$$$
header:name
header:software
header:notes
  4  3  0  0  1  0            999 V2000
  -26.3534  -40.2972    7.1576 C   0  0  0  0  0  0
  -25.3345  -40.7536    8.2022 C   0  0  0  0  0  0
  -25.2684  -39.7764    9.2166 O   0  0  0  0  0  0
  -26.1546  -39.6025    9.5454 H   0  0  0  0  0  0
  1  2  1  0  0  0
  2  3  1  0  0  0
  3  4  1  0  0  0
M  END
> <PLP_SCORE>
-25.548695

$$$$
header:name
header:software
header:notes
  4  3  0  0  1  0            999 V2000
  -21.5904  -43.8045    0.1504 C   0  0  0  0  0  0
  -20.2767  -43.2972    0.7456 C   0  0  0  0  0  0
  -19.3398  -44.3507    0.7200 O   0  0  0  0  0  0
  -18.4545  -43.9880    0.8099 H   0  0  0  0  0  0
  1  2  1  0  0  0
  2  3  1  0  0  0
  3  4  1  0  0  0
M  END
> <PLP_SCORE>
-25.707697

$$$$
header:name
header:software
header:notes
  4  3  0  0  1  0            999 V2000
  -19.9724  -42.3185    1.9047 C   0  0  0  0  0  0
  -20.3196  -43.2580    0.7496 C   0  0  0  0  0  0
  -19.3433  -44.2738    0.6928 O   0  0  0  0  0  0
  -18.4719  -43.8716    0.6442 H   0  0  0  0  0  0
  1  2  1  0  0  0
  2  3  1  0  0  0
  3  4  1  0  0  0
M  END
> <PLP_SCORE>
-26.174009

$$$$
header:name
header:software
header:notes
  4  3  0  0  1  0            999 V2000
  -19.8705  -41.9438    0.9977 C   0  0  0  0  0  0
  -20.4090  -43.3424    0.6952 C   0  0  0  0  0  0
  -19.3342  -44.2538    0.7447 O   0  0  0  0  0  0
  -18.6890  -44.0176    0.0728 H   0  0  0  0  0  0
  1  2  1  0  0  0
  2  3  1  0  0  0
  3  4  1  0  0  0
M  END
> <PLP_SCORE>
-28.497862

$$$$
header:name
header:software
header:notes
  4  3  0  0  1  0            999 V2000
  -24.2848  -41.8777    8.3945 C   0  0  0  0  0  0
  -25.2747  -40.7469    8.1135 C   0  0  0  0  0  0
  -25.2617  -39.8608    9.2104 O   0  0  0  0  0  0
  -25.0231  -40.3458   10.0050 H   0  0  0  0  0  0
  1  2  1  0  0  0
  2  3  1  0  0  0
  3  4  1  0  0  0
M  END
> <PLP_SCORE>
-24.597361

$$$$
header:name
header:software
header:notes
  4  3  0  0  1  0            999 V2000
  -21.6378  -43.6462    0.1937 C   0  0  0  0  0  0
  -20.2320  -43.2802    0.6704 C   0  0  0  0  0  0
  -19.3341  -44.2631    0.2058 O   0  0  0  0  0  0
  -19.0367  -44.0269   -0.6771 H   0  0  0  0  0  0
  1  2  1  0  0  0
  2  3  1  0  0  0
  3  4  1  0  0  0
M  END
> <PLP_SCORE>
-25.091696

$$$$
header:name
header:software
header:notes
  4  3  0  0  1  0            999 V2000
  -19.9561  -41.9829    1.0792 C   0  0  0  0  0  0
  -20.3461  -43.3245    0.4585 C   0  0  0  0  0  0
  -19.3154  -44.2514    0.7170 O   0  0  0  0  0  0
  -19.6647  -45.1429    0.6346 H   0  0  0  0  0  0
  1  2  1  0  0  0
  2  3  1  0  0  0
  3  4  1  0  0  0
M  END
> <PLP_SCORE>
-24.729788

$$$$
header:name
header:software
header:notes
  4  3  0  0  1  0            999 V2000
  -25.2906  -34.7655    7.6565 C   0  0  0  0  0  0
  -25.7779  -36.2118    7.7461 C   0  0  0  0  0  0
  -26.7776  -36.2844    8.7379 O   0  0  0  0  0  0
  -27.6390  -36.3340    8.3147 H   0  0  0  0  0  0
  1  2  1  0  0  0
  2  3  1  0  0  0
  3  4  1  0  0  0
M  END
> <PLP_SCORE>
-25.492846

$$$$
header:name
header:software
header:notes
  4  3  0  0  1  0            999 V2000
  -20.4882  -42.2682    0.1951 C   0  0  0  0  0  0
  -20.5793  -43.7234    0.6550 C   0  0  0  0  0  0
  -19.2749  -44.2565    0.7078 O   0  0  0  0  0  0
  -18.7971  -44.0004   -0.0858 H   0  0  0  0  0  0
  1  2  1  0  0  0
  2  3  1  0  0  0
  3  4  1  0  0  0
M  END
> <PLP_SCORE>
-26.588627

$$$$
header:name
header:software
header:notes
  4  3  0  0  1  0            999 V2000
  -19.8512  -42.1319    1.6678 C   0  0  0  0  0  0
  -20.0047  -43.0643    0.4660 C   0  0  0  0  0  0
  -19.3133  -44.2622    0.7404 O   0  0  0  0  0  0
  -18.3763  -44.1316    0.5714 H   0  0  0  0  0  0
  1  2  1  0  0  0
  2  3  1  0  0  0
  3  4  1  0  0  0
M  END
> <PLP_SCORE>
-26.837732

$$$$
header:name
header:software
header:notes
  4  3  0  0  1  0            999 V2000
  -19.8441  -42.0444    1.3952 C   0  0  0  0  0  0
  -20.3535  -43.2837    0.6588 C   0  0  0  0  0  0
  -19.3546  -44.2774    0.7154 O   0  0  0  0  0  0
  -19.3871  -44.8036   -0.0881 H   0  0  0  0  0  0
  1  2  1  0  0  0
  2  3  1  0  0  0
  3  4  1  0  0  0
M  END
> <PLP_SCORE>
-27.555279

$$$$
header:name
header:software
header:notes
  4  3  0  0  1  0            999 V2000
  -19.5056  -42.0916    1.5183 C   0  0  0  0  0  0
  -20.1690  -43.1972    0.6967 C   0  0  0  0  0  0
  -19.2707  -44.2796    0.5990 O   0  0  0  0  0  0
  -18.3944  -43.9446    0.3903 H   0  0  0  0  0  0
  1  2  1  0  0  0
  2  3  1  0  0  0
  3  4  1  0  0  0
M  END
> <PLP_SCORE>
-24.943981

$$$$
header:name
header:software
header:notes
  4  3  0  0  1  0            999 V2000
  -21.5878  -43.9803    0.1893 C   0  0  0  0  0  0
  -20.2908  -43.2848    0.6034 C   0  0  0  0  0  0
  -19.2865  -44.2641    0.7472 O   0  0  0  0  0  0
  -18.6991  -44.0107    1.4644 H   0  0  0  0  0  0
  1  2  1  0  0  0
  2  3  1  0  0  0
  3  4  1  0  0  0
M  END
> <PLP_SCORE>
-30.204020

$$$$
header:name
header:software
header:notes
  4  3  0  0  1  0            999 V2000
  -21.6313  -43.8860    0.2457 C   0  0  0  0  0  0
  -20.2882  -43.2966    0.6772 C   0  0  0  0  0  0
  -19.3200  -44.3211    0.6410 O   0  0  0  0  0  0
  -18.5211  -44.0160    1.0795 H   0  0  0  0  0  0
  1  2  1  0  0  0
  2  3  1  0  0  0
  3  4  1  0  0  0
M  END
> <PLP_SCORE>
-27.688797

$$$$
header:name
header:software
header:notes
  4  3  0  0  1  0            999 V2000
  -24.9303  -35.5605    7.4337 C   0  0  0  0  0  0
  -26.0982  -36.5420    7.5354 C   0  0  0  0  0  0
  -26.8114  -36.2645    8.7198 O   0  0  0  0  0  0
  -27.5006  -36.9242    8.8350 H   0  0  0  0  0  0
  1  2  1  0  0  0
  2  3  1  0  0  0
  3  4  1  0  0  0
M  END
> <PLP_SCORE>
-23.168848

$$$$
header:name
header:software
header:notes
  4  3  0  0  1  0            999 V2000
  -24.7506  -41.8700    8.2092 C   0  0  0  0  0  0
  -25.2648  -40.4468    7.9906 C   0  0  0  0  0  0
  -25.2609  -39.7763    9.2310 O   0  0  0  0  0  0
  -25.9755  -40.1168    9.7760 H   0  0  0  0  0  0
  1  2  1  0  0  0
  2  3  1  0  0  0
  3  4  1  0  0  0
M  END
> <PLP_SCORE>
-25.947823

$$$$
header:name
header:software
header:notes
  4  3  0  0  1  0            999 V2000
  -25.2854  -34.9182    7.3760 C   0  0  0  0  0  0
  -25.7714  -36.3359    7.6786 C   0  0  0  0  0  0
  -26.7668  -36.2625    8.6746 O   0  0  0  0  0  0
  -27.0196  -37.1525    8.9343 H   0  0  0  0  0  0
  1  2  1  0  0  0
  2  3  1  0  0  0
  3  4  1  0  0  0
M  END
> <PLP_SCORE>
-24.003210

$$$$
header:name
header:software
header:notes
  4  3  0  0  1  0            999 V2000
  -24.7550  -41.3589    8.2135 C   0  0  0  0  0  0
  -25.3471  -39.9683    7.9829 C   0  0  0  0  0  0
  -25.3288  -39.2679    9.2066 O   0  0  0  0  0  0
  -24.4915  -38.8039    9.2921 H   0  0  0  0  0  0
  1  2  1  0  0  0
  2  3  1  0  0  0
  3  4  1  0  0  0
M  END
> <PLP_SCORE>
-23.702545

$$$$
